@<TRIPOS>MOLECULE
pyrimidine-4-carboxylic acid
   13    13     0     0     0
SMALL
USER_CHARGES

@<TRIPOS>ATOM
      1 C1          0.5881    0.8905    1.8661 C.ar      1 MOL        -0.3039
      2 C2         -0.2066    0.1010    1.0601 C.ar      1 MOL         0.4166
      3 N1         -1.2746   -0.5912    1.5079 N.ar      1 MOL        -0.6663
      4 C3         -1.5246   -0.4612    2.8247 C.ar      1 MOL         0.6234
      5 N2         -0.8283    0.2746    3.7121 N.ar      1 MOL        -0.6403
      6 C4          0.2261    0.9401    3.1967 C.ar      1 MOL         0.4057
      7 C5          0.9917    1.7389    4.1378 C.2       1 MOL         0.5398
      8 O1          1.9877    2.4168    3.8600 O.2       1 MOL        -0.4991
      9 O2          0.4944    1.6735    5.4041 O.3       1 MOL        -0.6106
     10 H1          1.4373    1.4322    1.4694 H         1 MOL         0.1785
     11 H2          0.0006   -0.0006    0.0001 H         1 MOL         0.0371
     12 H3         -2.3768   -1.0070    3.2108 H         1 MOL         0.0659
     13 H4         -0.2974    1.0993    5.4788 H         1 MOL         0.4533
@<TRIPOS>BOND
     1    1    6 ar
     2    1    2 ar
     3    2    3 ar
     4    3    4 ar
     5    4    5 ar
     6    5    6 ar
     7    6    7 1
     8    7    8 2
     9    7    9 1
    10    1   10 1
    11    2   11 1
    12    4   12 1
    13    9   13 1
