@<TRIPOS>MOLECULE
1,3-dimethyl-7~{H}-purine-2,6-dione
   21    22     0     0     0
SMALL
USER_CHARGES

@<TRIPOS>ATOM
      1 C1          1.0740   -0.0874   -0.1242 C.3       1 MOL         0.0918
      2 N1          1.6743    1.1555   -0.5931 N.am      1 MOL        -0.4176
      3 C2          3.0449    1.2362   -0.7981 C.2       1 MOL         0.4825
      4 C3          3.6441    2.3853   -1.2367 C.2       1 MOL        -0.3493
      5 C4          2.9523    3.5995   -1.5265 C.2       1 MOL         0.7598
      6 O1          3.5154    4.6177   -1.9178 O.2       1 MOL        -0.6225
      7 N2          1.5557    3.4679   -1.3036 N.am      1 MOL        -0.4842
      8 C5          0.8629    2.2904   -0.8430 C.2       1 MOL         0.8188
      9 O2         -0.3625    2.2774   -0.6793 O.2       1 MOL        -0.6340
     10 C6          0.7184    4.6347   -1.5610 C.3       1 MOL         0.0803
     11 N3          4.9734    2.0838   -1.3171 N.pl3     1 MOL        -0.2675
     12 C7          5.1112    0.7768   -0.9264 C.2       1 MOL         0.4494
     13 N4          3.9557    0.2327   -0.6044 N.2       1 MOL        -0.6870
     14 H1          0.7919   -0.7128   -0.9751 H         1 MOL         0.0629
     15 H2          0.1800    0.1247    0.4684 H         1 MOL         0.0629
     16 H3          1.7841   -0.6389    0.4979 H         1 MOL         0.0629
     17 H4          0.3889    4.6126   -2.5953 H         1 MOL         0.0639
     18 H5          1.2965    5.5355   -1.3770 H         1 MOL         0.0639
     19 H6         -0.1421    4.6086   -0.8989 H         1 MOL         0.0639
     20 H7          5.7173    2.7038   -1.6091 H         1 MOL         0.3267
     21 H8          6.0741    0.2870   -0.8999 H         1 MOL         0.0725
@<TRIPOS>BOND
     1    1    2 1
     2    2    8 am
     3    2    3 1
     4    3   13 1
     5    3    4 2
     6    4    5 1
     7    5    6 2
     8    5    7 am
     9    7    8 am
    10    8    9 2
    11    7   10 1
    12    4   11 1
    13   11   12 1
    14   12   13 2
    15    1   14 1
    16    1   15 1
    17    1   16 1
    18   10   17 1
    19   10   18 1
    20   10   19 1
    21   11   20 1
    22   12   21 1
