@<TRIPOS>MOLECULE
(7~{S})-2-hydroxy-7-isopropyl-7,8-dihydro-5~{H}-pyrano[4,3-b]pyridine-3-carbonitrile
   30    31     0     0     0
SMALL
USER_CHARGES

@<TRIPOS>ATOM
      1 C1          1.8871    3.6145    2.1386 C.3       1 MOL        -0.0931
      2 C2          2.3322    2.3324    1.4386 C.3       1 MOL        -0.0615
      3 C3          3.3565    1.5842    2.2890 C.3       1 MOL        -0.0931
      4 C4          1.1342    1.4432    1.1382 C.3       1 MOL         0.1399
      5 H1          0.6375    1.1855    2.0829 H         1 MOL         0.0469
      6 C5          1.5580    0.1840    0.3783 C.3       1 MOL        -0.1706
      7 C6          0.3571   -0.5871   -0.1004 C.ar      1 MOL         0.4901
      8 C7         -0.8667    0.0691   -0.2463 C.ar      1 MOL        -0.2727
      9 C8         -1.9505   -0.6700   -0.7215 C.ar      1 MOL        -0.0203
     10 C9         -1.7838   -2.0095   -1.0521 C.ar      1 MOL        -0.1534
     11 C10        -0.5275   -2.5664   -0.8866 C.ar      1 MOL         0.6733
     12 N1          0.5463   -1.8895   -0.4225 N.ar      1 MOL        -0.7475
     13 O1         -0.3143   -3.8843   -1.2007 O.3       1 MOL        -0.5990
     14 C11        -2.8903   -2.7683   -1.5432 C.1       1 MOL         0.2507
     15 N2         -3.7903   -3.3855   -1.9428 N.1       1 MOL        -0.3548
     16 C12        -1.0252    1.5077    0.1575 C.3       1 MOL         0.1840
     17 O2          0.2258    2.1861    0.3169 O.3       1 MOL        -0.4060
     18 H2          1.1515    4.1615    1.5388 H         1 MOL         0.0394
     19 H3          1.4325    3.3895    3.1091 H         1 MOL         0.0394
     20 H4          2.7407    4.2774    2.3149 H         1 MOL         0.0394
     21 H5          2.8064    2.6052    0.4880 H         1 MOL         0.0617
     22 H6          3.6845    0.6616    1.7978 H         1 MOL         0.0394
     23 H7          2.9325    1.3170    3.2626 H         1 MOL         0.0394
     24 H8          4.2407    2.2052    2.4679 H         1 MOL         0.0394
     25 H9          2.1406    0.4567   -0.5107 H         1 MOL         0.0826
     26 H10         2.1842   -0.4509    1.0150 H         1 MOL         0.0826
     27 H11        -2.9218   -0.1915   -0.8285 H         1 MOL         0.1542
     28 H12         0.6089   -4.1150   -1.0293 H         1 MOL         0.4479
     29 H13        -1.5875    2.0521   -0.6085 H         1 MOL         0.0609
     30 H14        -1.5795    1.5707    1.1011 H         1 MOL         0.0609
@<TRIPOS>BOND
     1    1    2 1
     2    2    3 1
     3    2    4 1
     4    4    5 1
     5    4   17 1
     6    4    6 1
     7    6    7 1
     8    7   12 ar
     9    7    8 ar
    10    8    9 ar
    11    9   10 ar
    12   10   11 ar
    13   11   12 ar
    14   11   13 1
    15   10   14 1
    16   14   15 3
    17    8   16 1
    18   16   17 1
    19    1   18 1
    20    1   19 1
    21    1   20 1
    22    2   21 1
    23    3   22 1
    24    3   23 1
    25    3   24 1
    26    6   25 1
    27    6   26 1
    28    9   27 1
    29   13   28 1
    30   16   29 1
    31   16   30 1
