@<TRIPOS>MOLECULE
1-[(2~{R})-2-(6,7,8,9-tetrahydro-5~{H}-[1,2,4]triazolo[4,3-d][1,4]diazepin-3-yl)pyrrolidin-1-yl]ethanone
   37    39     0     0     0
SMALL
USER_CHARGES

@<TRIPOS>ATOM
      1 C1          6.0328   -1.5405    0.4641 C.3       1 MOL        -0.1750
      2 C2          4.6600   -1.3392   -0.1259 C.2       1 MOL         0.6884
      3 O1          3.8338   -2.2531   -0.1054 O.2       1 MOL        -0.5951
      4 N1          4.4174   -0.0827   -0.6608 N.am      1 MOL        -0.4828
      5 C3          5.4088    0.9748   -0.8462 C.3       1 MOL         0.1011
      6 C4          4.6141    2.1825   -1.3187 C.3       1 MOL        -0.0951
      7 C5          3.4325    1.5598   -2.0547 C.3       1 MOL        -0.0852
      8 C6          3.1319    0.2827   -1.2627 C.3       1 MOL         0.1008
      9 H1          2.7994   -0.5389   -1.9466 H         1 MOL         0.0435
     10 C7          2.0440    0.4766   -0.2200 C.2       1 MOL         0.3281
     11 N2          2.2217    0.8465    1.0281 N.2       1 MOL        -0.3246
     12 N3          0.9794    0.9007    1.6269 N.2       1 MOL        -0.3479
     13 C8          0.0797    0.5621    0.7247 C.2       1 MOL         0.3625
     14 N4          0.7182    0.2897   -0.4528 N.pl3     1 MOL        -0.3239
     15 C9          0.0996   -0.1204   -1.6917 C.3       1 MOL        -0.0063
     16 C10        -0.7562   -1.3790   -1.5541 C.3       1 MOL         0.1487
     17 N5         -2.0480   -1.1420   -0.9030 N.3       1 MOL        -0.8165
     18 C11        -1.9472   -0.9063    0.5407 C.3       1 MOL         0.1556
     19 C12        -1.3911    0.4721    0.9011 C.3       1 MOL        -0.1410
     20 H2          6.7204   -1.9209   -0.2960 H         1 MOL         0.0656
     21 H3          5.9903   -2.2564    1.2897 H         1 MOL         0.0656
     22 H4          6.4228   -0.5943    0.8493 H         1 MOL         0.0656
     23 H5          5.9550    1.1675    0.0811 H         1 MOL         0.0608
     24 H6          6.1154    0.6404   -1.6137 H         1 MOL         0.0608
     25 H7          4.2532    2.7540   -0.4551 H         1 MOL         0.0558
     26 H8          5.2042    2.8544   -1.9480 H         1 MOL         0.0558
     27 H9          2.5820    2.2435   -2.1411 H         1 MOL         0.0601
     28 H10         3.7524    1.2893   -3.0691 H         1 MOL         0.0601
     29 H11        -0.4860    0.7299   -2.0616 H         1 MOL         0.0640
     30 H12         0.8891   -0.3095   -2.4267 H         1 MOL         0.0640
     31 H13        -0.9745   -1.7508   -2.5620 H         1 MOL         0.0692
     32 H14        -0.2079   -2.1800   -1.0432 H         1 MOL         0.0692
     33 H15        -2.6727   -1.9278   -1.0811 H         1 MOL         0.3623
     34 H16        -2.9660   -0.9725    0.9411 H         1 MOL         0.0670
     35 H17        -1.3770   -1.7092    1.0245 H         1 MOL         0.0670
     36 H18        -1.8875    1.2582    0.3193 H         1 MOL         0.0760
     37 H19        -1.6250    0.6746    1.9537 H         1 MOL         0.0760
@<TRIPOS>BOND
     1    1    2 1
     2    2    3 2
     3    2    4 am
     4    4    8 1
     5    4    5 1
     6    5    6 1
     7    6    7 1
     8    7    8 1
     9    8    9 1
    10    8   10 1
    11   10   14 1
    12   10   11 2
    13   11   12 1
    14   12   13 2
    15   13   19 1
    16   13   14 1
    17   14   15 1
    18   15   16 1
    19   16   17 1
    20   17   18 1
    21   18   19 1
    22    1   20 1
    23    1   21 1
    24    1   22 1
    25    5   23 1
    26    5   24 1
    27    6   25 1
    28    6   26 1
    29    7   27 1
    30    7   28 1
    31   15   29 1
    32   15   30 1
    33   16   31 1
    34   16   32 1
    35   17   33 1
    36   18   34 1
    37   18   35 1
    38   19   36 1
    39   19   37 1
