@<TRIPOS>MOLECULE
~{N}-[3-(1,3-benzothiazol-2-yl)phenyl]isoxazole-5-carboxamide
   34    37     0     0     0
SMALL
USER_CHARGES

@<TRIPOS>ATOM
      1 C1          1.4818   -0.7898   -1.1661 C.ar      1 MOL        -0.1318
      2 C2          0.1890   -0.2836   -1.0891 C.ar      1 MOL        -0.1193
      3 C3         -0.7889   -0.6724   -2.0081 C.ar      1 MOL        -0.0901
      4 C4         -0.4327   -1.5876   -3.0117 C.ar      1 MOL        -0.0888
      5 C5          0.8605   -2.1101   -3.1094 C.ar      1 MOL         0.0852
      6 C6          1.8295   -1.7006   -2.1680 C.ar      1 MOL        -0.0729
      7 N1          1.0591   -3.0026   -4.1527 N.2       1 MOL        -0.5206
      8 C7         -0.0585   -3.1484   -4.8253 C.2       1 MOL         0.4207
      9 S1         -1.4046   -2.2491   -4.2729 S.3       1 MOL        -0.0412
     10 C8         -0.2226   -4.0019   -5.9780 C.ar      1 MOL        -0.0930
     11 C9          0.8941   -4.4143   -6.7051 C.ar      1 MOL        -0.1050
     12 C10         0.7355   -5.2383   -7.8193 C.ar      1 MOL        -0.1148
     13 C11        -0.5397   -5.6500   -8.2065 C.ar      1 MOL        -0.1390
     14 C12        -1.6564   -5.2375   -7.4794 C.ar      1 MOL         0.0645
     15 C13        -1.4979   -4.4135   -6.3652 C.ar      1 MOL        -0.1634
     16 N2         -2.9316   -5.6499   -7.8667 N.am      1 MOL        -0.4542
     17 C14        -3.2953   -6.4742   -8.9510 C.2       1 MOL         0.6043
     18 O1         -2.4898   -6.9637   -9.7400 O.2       1 MOL        -0.5724
     19 C15        -4.7432   -6.6893   -9.1146 C.2       1 MOL         0.1877
     20 C16        -5.4669   -7.4103  -10.0271 C.2       1 MOL        -0.2691
     21 C17        -6.8004   -7.2060   -9.6326 C.2       1 MOL         0.2940
     22 N3         -6.8965   -6.4186   -8.5577 N.2       1 MOL        -0.3294
     23 O2         -5.5853   -6.0928   -8.2324 O.3       1 MOL        -0.1260
     24 H1          2.2288   -0.4767   -0.4421 H         1 MOL         0.1366
     25 H2         -0.0656    0.4241   -0.3044 H         1 MOL         0.1355
     26 H3         -1.7962   -0.2718   -1.9428 H         1 MOL         0.1412
     27 H4          2.8425   -2.0893   -2.2188 H         1 MOL         0.1528
     28 H5          1.8950   -4.1019   -6.4160 H         1 MOL         0.1582
     29 H6          1.6051   -5.5590   -8.3857 H         1 MOL         0.1414
     30 H7         -0.6513   -6.2923   -9.0766 H         1 MOL         0.1774
     31 H8         -2.3721   -4.0946   -5.8006 H         1 MOL         0.1394
     32 H9         -3.7064   -5.3086   -7.2862 H         1 MOL         0.3357
     33 H10        -5.0907   -7.9957  -10.8530 H         1 MOL         0.1946
     34 H11        -7.7037   -7.5948  -10.0791 H         1 MOL         0.0619
@<TRIPOS>BOND
     1    1    6 ar
     2    1    2 ar
     3    2    3 ar
     4    3    4 ar
     5    4    9 1
     6    4    5 ar
     7    5    6 ar
     8    5    7 1
     9    7    8 2
    10    8    9 1
    11    8   10 1
    12   10   15 ar
    13   10   11 ar
    14   11   12 ar
    15   12   13 ar
    16   13   14 ar
    17   14   15 ar
    18   14   16 1
    19   16   17 am
    20   17   18 2
    21   17   19 1
    22   19   23 1
    23   19   20 2
    24   20   21 1
    25   21   22 2
    26   22   23 1
    27    1   24 1
    28    2   25 1
    29    3   26 1
    30    6   27 1
    31   11   28 1
    32   12   29 1
    33   13   30 1
    34   15   31 1
    35   16   32 1
    36   20   33 1
    37   21   34 1
