@<TRIPOS>MOLECULE
3-(3,5-dimethylpyrazol-1-yl)-6-(1~{H}-indol-3-yl)-7~{H}-[1,2,4]triazolo[3,4-b][1,3,4]thiadiazine
   40    44     0     0     0
SMALL
USER_CHARGES

@<TRIPOS>ATOM
      1 C1          4.9840   -1.7068    2.3668 C.3       1 MOL        -0.1253
      2 C2          4.5784   -0.6369    1.4536 C.2       1 MOL         0.3224
      3 C3          5.2877    0.3695    0.8449 C.2       1 MOL        -0.2931
      4 C4          4.3280    1.0688    0.0888 C.2       1 MOL        -0.0547
      5 N1          3.1025    0.5505    0.2048 N.pl3     1 MOL         0.0687
      6 N2          3.2874   -0.4853    1.0409 N.2       1 MOL        -0.4812
      7 C5          1.8703    0.8443   -0.3034 C.2       1 MOL         0.5300
      8 N3          1.6152    1.8433   -1.1195 N.2       1 MOL        -0.3070
      9 N4          0.2709    1.8001   -1.4237 N.2       1 MOL        -0.2954
     10 C6         -0.2366    0.7852   -0.7682 C.2       1 MOL         0.3835
     11 N5          0.7225    0.1489   -0.0337 N.pl3     1 MOL        -0.1268
     12 N6          0.6377   -0.9636    0.7282 N.2       1 MOL        -0.5200
     13 C7         -0.5499   -1.3755    1.0688 C.2       1 MOL         0.4986
     14 C8         -1.8481   -0.6317    0.7983 C.3       1 MOL        -0.1361
     15 S1         -1.8421    0.1867   -0.8080 S.3       1 MOL        -0.1369
     16 C9         -0.6399   -2.6376    1.8613 C.2       1 MOL        -0.2349
     17 C10        -1.6341   -2.9085    2.7729 C.2       1 MOL         0.0795
     18 N7         -1.3938   -4.1479    3.3027 N.pl3     1 MOL        -0.5708
     19 C11        -0.2559   -4.6889    2.7480 C.ar      1 MOL         0.0715
     20 C12         0.2397   -3.7559    1.8347 C.ar      1 MOL        -0.0655
     21 C13         1.4136   -4.0648    1.1191 C.ar      1 MOL        -0.0983
     22 C14         2.0466   -5.2928    1.3433 C.ar      1 MOL        -0.1392
     23 C15         1.5292   -6.2048    2.2610 C.ar      1 MOL        -0.1128
     24 C16         0.3662   -5.9204    2.9824 C.ar      1 MOL        -0.1314
     25 C17         4.5703    2.2568   -0.7669 C.3       1 MOL        -0.0316
     26 H1          5.2722   -2.5958    1.7975 H         1 MOL         0.0530
     27 H2          5.8312   -1.3925    2.9854 H         1 MOL         0.0530
     28 H3          4.1671   -1.9710    3.0467 H         1 MOL         0.0530
     29 H4          6.3401    0.6063    0.9053 H         1 MOL         0.1673
     30 H5         -2.6927   -1.3263    0.8407 H         1 MOL         0.1057
     31 H6         -1.9831    0.1154    1.5880 H         1 MOL         0.1057
     32 H7         -2.4915   -2.3332    3.0942 H         1 MOL         0.1882
     33 H8         -1.9686   -4.6006    3.9999 H         1 MOL         0.4632
     34 H9          1.8296   -3.3645    0.4007 H         1 MOL         0.1342
     35 H10         2.9529   -5.5367    0.7948 H         1 MOL         0.1363
     36 H11         2.0367   -7.1531    2.4192 H         1 MOL         0.1366
     37 H12        -0.0355   -6.6314    3.6964 H         1 MOL         0.1389
     38 H13         4.8177    1.9528   -1.7942 H         1 MOL         0.0573
     39 H14         3.6887    2.9141   -0.8079 H         1 MOL         0.0573
     40 H15         5.3990    2.8711   -0.3833 H         1 MOL         0.0573
@<TRIPOS>BOND
     1    1    2 1
     2    2    6 2
     3    2    3 1
     4    3    4 2
     5    4    5 1
     6    5    6 1
     7    5    7 1
     8    7   11 1
     9    7    8 2
    10    8    9 1
    11    9   10 2
    12   10   15 1
    13   10   11 1
    14   11   12 1
    15   12   13 2
    16   13   14 1
    17   14   15 1
    18   13   16 1
    19   16   20 1
    20   16   17 2
    21   17   18 1
    22   18   19 1
    23   19   24 ar
    24   19   20 ar
    25   20   21 ar
    26   21   22 ar
    27   22   23 ar
    28   23   24 ar
    29    4   25 1
    30    1   26 1
    31    1   27 1
    32    1   28 1
    33    3   29 1
    34   14   30 1
    35   14   31 1
    36   17   32 1
    37   18   33 1
    38   21   34 1
    39   22   35 1
    40   23   36 1
    41   24   37 1
    42   25   38 1
    43   25   39 1
    44   25   40 1
