@<TRIPOS>MOLECULE
2-(4-methylsulfanylphenyl)-~{N}-thieno[2,3-d]pyrimidin-4-yl-acetamide
   34    36     0     0     0
SMALL
USER_CHARGES

@<TRIPOS>ATOM
      1 C1         -4.2838    2.6278   -7.0767 C.3       1 MOL        -0.0501
      2 S1         -3.8902    4.1805   -6.2367 S.3       1 MOL        -0.2298
      3 C2         -3.1637    3.5481   -4.7373 C.ar      1 MOL        -0.0047
      4 C3         -3.9122    2.7294   -3.8917 C.ar      1 MOL        -0.0941
      5 C4         -3.3442    2.2341   -2.7180 C.ar      1 MOL        -0.1205
      6 C5         -2.0277    2.5576   -2.3897 C.ar      1 MOL        -0.0721
      7 C6         -1.2791    3.3764   -3.2353 C.ar      1 MOL        -0.1205
      8 C7         -1.8472    3.8716   -4.4091 C.ar      1 MOL        -0.0941
      9 C8         -1.4143    2.0232   -1.1220 C.3       1 MOL        -0.1071
     10 C9         -0.7186    0.6835   -1.3046 C.2       1 MOL         0.6704
     11 O1          0.2216    0.5331   -2.0783 O.2       1 MOL        -0.5139
     12 N1         -1.3005   -0.2820   -0.4870 N.am      1 MOL        -0.5585
     13 C10        -0.9417   -1.6281   -0.3696 C.ar      1 MOL         0.6173
     14 C11        -1.6367   -2.4675    0.5069 C.ar      1 MOL        -0.3612
     15 C12        -2.7345   -2.2514    1.3982 C.2       1 MOL        -0.1095
     16 C13        -3.0943   -3.3942    2.0790 C.2       1 MOL        -0.1838
     17 S2         -2.1170   -4.7312    1.6509 S.3       1 MOL         0.0172
     18 C14        -1.2112   -3.7886    0.5577 C.ar      1 MOL         0.4327
     19 N2         -0.2005   -4.3240   -0.1546 N.ar      1 MOL        -0.6852
     20 C15         0.3843   -3.4161   -0.9563 C.ar      1 MOL         0.6673
     21 N3          0.0800   -2.1123   -1.1077 N.ar      1 MOL        -0.7130
     22 H1         -4.7505    2.8356   -8.0426 H         1 MOL         0.0664
     23 H2         -4.9743    2.0404   -6.4663 H         1 MOL         0.0664
     24 H3         -3.3699    2.0510   -7.2379 H         1 MOL         0.0664
     25 H4         -4.9399    2.4665   -4.1309 H         1 MOL         0.1443
     26 H5         -3.9353    1.5974   -2.0651 H         1 MOL         0.1360
     27 H6         -0.2530    3.6340   -2.9872 H         1 MOL         0.1360
     28 H7         -1.2478    4.5083   -5.0555 H         1 MOL         0.1443
     29 H8         -0.6872    2.7465   -0.7314 H         1 MOL         0.0735
     30 H9         -2.1919    1.9155   -0.3552 H         1 MOL         0.0735
     31 H10        -2.0785    0.0133    0.0992 H         1 MOL         0.3217
     32 H11        -3.2396   -1.3035    1.5364 H         1 MOL         0.1470
     33 H12        -3.8856   -3.5062    2.8065 H         1 MOL         0.1768
     34 H13         1.2075   -3.7806   -1.5612 H         1 MOL         0.0607
@<TRIPOS>BOND
     1    1    2 1
     2    2    3 1
     3    3    8 ar
     4    3    4 ar
     5    4    5 ar
     6    5    6 ar
     7    6    7 ar
     8    7    8 ar
     9    6    9 1
    10    9   10 1
    11   10   11 2
    12   10   12 am
    13   12   13 1
    14   13   21 ar
    15   13   14 ar
    16   14   18 ar
    17   14   15 1
    18   15   16 2
    19   16   17 1
    20   17   18 1
    21   18   19 ar
    22   19   20 ar
    23   20   21 ar
    24    1   22 1
    25    1   23 1
    26    1   24 1
    27    4   25 1
    28    5   26 1
    29    7   27 1
    30    8   28 1
    31    9   29 1
    32    9   30 1
    33   12   31 1
    34   15   32 1
    35   16   33 1
    36   20   34 1
