@<TRIPOS>MOLECULE
3-(1~{H}-indol-3-yl)propanoic acid
   25    26     0     0     0
SMALL
USER_CHARGES

@<TRIPOS>ATOM
      1 C1         -0.7036    1.3640    1.5041 C.ar      1 MOL        -0.1548
      2 C2         -0.7671    0.1975    0.7446 C.ar      1 MOL        -0.1116
      3 C3         -1.8022   -0.7245    0.9247 C.ar      1 MOL        -0.1445
      4 C4         -2.7685   -0.4315    1.8936 C.ar      1 MOL         0.0802
      5 C5         -2.7304    0.7292    2.6692 C.ar      1 MOL        -0.0881
      6 C6         -1.6773    1.6439    2.4698 C.ar      1 MOL        -0.0854
      7 C7         -3.8586    0.6897    3.5356 C.2       1 MOL        -0.1477
      8 C8         -4.5471   -0.4724    3.2738 C.2       1 MOL         0.0111
      9 N1         -3.8818   -1.1421    2.2822 N.pl3     1 MOL        -0.5833
     10 C9         -4.2341    1.7076    4.5379 C.3       1 MOL        -0.0010
     11 C10        -3.6286    1.4730    5.9333 C.3       1 MOL        -0.1716
     12 C11        -4.0510    2.5463    6.9073 C.2       1 MOL         0.6200
     13 O1         -4.7840    3.4822    6.6141 O.2       1 MOL        -0.4872
     14 O2         -3.5100    2.3828    8.1397 O.3       1 MOL        -0.5870
     15 H1          0.1112    2.0654    1.3462 H         1 MOL         0.1307
     16 H2         -0.0003    0.0001   -0.0001 H         1 MOL         0.1313
     17 H3         -1.8514   -1.6318    0.3322 H         1 MOL         0.1322
     18 H4         -1.6132    2.5572    3.0545 H         1 MOL         0.1344
     19 H5         -5.4494   -0.8842    3.7045 H         1 MOL         0.1665
     20 H6         -4.1662   -2.0297    1.8914 H         1 MOL         0.4550
     21 H7         -3.9586    2.7265    4.1988 H         1 MOL         0.0655
     22 H8         -5.3359    1.7418    4.6473 H         1 MOL         0.0655
     23 H9         -3.9689    0.5167    6.3493 H         1 MOL         0.0738
     24 H10        -2.5355    1.4078    5.8915 H         1 MOL         0.0738
     25 H11        -2.9396    1.5921    8.2477 H         1 MOL         0.4221
@<TRIPOS>BOND
     1    1    6 ar
     2    1    2 ar
     3    2    3 ar
     4    3    4 ar
     5    4    9 1
     6    4    5 ar
     7    5    6 ar
     8    5    7 1
     9    7    8 2
    10    8    9 1
    11    7   10 1
    12   10   11 1
    13   11   12 1
    14   12   13 2
    15   12   14 1
    16    1   15 1
    17    2   16 1
    18    3   17 1
    19    6   18 1
    20    8   19 1
    21    9   20 1
    22   10   21 1
    23   10   22 1
    24   11   23 1
    25   11   24 1
    26   14   25 1
