@<TRIPOS>MOLECULE
thieno[2,3-b]pyridine-2-carboxylic acid
   17    18     0     0     0
SMALL
USER_CHARGES

@<TRIPOS>ATOM
      1 C1          2.1349   -0.2824   -0.0332 C.ar      1 MOL        -0.2577
      2 C2          0.9716    0.4797   -0.0722 C.ar      1 MOL        -0.0374
      3 C3          1.0807    1.8788   -0.2062 C.ar      1 MOL        -0.2183
      4 C4          0.1025    2.9220   -0.2763 C.2       1 MOL        -0.0362
      5 C5          0.6691    4.1706   -0.4090 C.2       1 MOL        -0.1865
      6 S1          2.3769    4.0997   -0.4501 S.3       1 MOL         0.0900
      7 C6          2.3668    2.4019   -0.2910 C.ar      1 MOL         0.3839
      8 N1          3.5216    1.7043   -0.2578 N.ar      1 MOL        -0.6344
      9 C7          3.3507    0.3712   -0.1283 C.ar      1 MOL         0.4241
     10 C8          0.0234    5.4392   -0.5095 C.2       1 MOL         0.6756
     11 O1          0.5844    6.5514   -0.6293 O.2       1 MOL        -0.5490
     12 O2         -1.3457    5.3621   -0.4653 O.3       1 MOL        -0.5990
     13 H1          2.0873   -1.3609    0.0687 H         1 MOL         0.1480
     14 H2         -0.0001    0.0000   -0.0004 H         1 MOL         0.1463
     15 H3         -0.9673    2.7563   -0.2299 H         1 MOL         0.1734
     16 H4          4.2750   -0.1997   -0.1016 H         1 MOL         0.0285
     17 H5         -1.7992    6.2292   -0.5345 H         1 MOL         0.4488
@<TRIPOS>BOND
     1    1    9 ar
     2    1    2 ar
     3    2    3 ar
     4    3    7 ar
     5    3    4 1
     6    4    5 2
     7    5    6 1
     8    6    7 1
     9    7    8 ar
    10    8    9 ar
    11    5   10 1
    12   10   11 2
    13   10   12 1
    14    1   13 1
    15    2   14 1
    16    4   15 1
    17    9   16 1
    18   12   17 1
