@<TRIPOS>MOLECULE
2-[(6-methylquinazolin-4-yl)amino]acetic acid
   27    28     0     0     0
SMALL
USER_CHARGES

@<TRIPOS>ATOM
      1 C1          1.1804   -2.1987   -1.0453 C.3       1 MOL        -0.0569
      2 C2          1.7781   -1.2046   -0.1090 C.ar      1 MOL        -0.0855
      3 C3          1.0259   -0.1228    0.3350 C.ar      1 MOL        -0.1002
      4 C4          1.5879    0.8085    1.2132 C.ar      1 MOL        -0.1779
      5 C5          2.8996    0.6850    1.6650 C.ar      1 MOL         0.4377
      6 C6          3.6493   -0.4117    1.2094 C.ar      1 MOL        -0.2886
      7 C7          3.0913   -1.3524    0.3263 C.ar      1 MOL        -0.0994
      8 C8          4.9553   -0.5013    1.6825 C.ar      1 MOL         0.7165
      9 N1          5.5107    0.3871    2.5281 N.ar      1 MOL        -0.7960
     10 C9          4.7000    1.3925    2.8954 C.ar      1 MOL         0.6734
     11 N2          3.4231    1.5906    2.5098 N.ar      1 MOL        -0.7174
     12 N3          5.7730   -1.5814    1.2665 N.pl3     1 MOL        -0.8737
     13 C10         7.1202   -1.7416    1.7074 C.3       1 MOL         0.1346
     14 C11         7.7289   -2.9833    1.0931 C.2       1 MOL         0.6131
     15 O1          7.1490   -3.7401    0.3289 O.2       1 MOL        -0.4864
     16 O2          9.0138   -3.1608    1.4958 O.3       1 MOL        -0.5680
     17 H1          0.7025   -3.0049   -0.4804 H         1 MOL         0.0481
     18 H2          0.4323   -1.7270   -1.6910 H         1 MOL         0.0481
     19 H3          1.9463   -2.6299   -1.6987 H         1 MOL         0.0481
     20 H4         -0.0014    0.0083    0.0051 H         1 MOL         0.1387
     21 H5          0.9779    1.6462    1.5459 H         1 MOL         0.1556
     22 H6          3.6669   -2.2037   -0.0299 H         1 MOL         0.1325
     23 H7          5.1159    2.1257    3.5757 H         1 MOL         0.0511
     24 H8          5.3598   -2.2393    0.6377 H         1 MOL         0.4608
     25 H9          7.1704   -1.8510    2.8096 H         1 MOL         0.0803
     26 H10         7.7456   -0.8740    1.4151 H         1 MOL         0.0803
     27 H11         9.3061   -2.4525    2.1085 H         1 MOL         0.4310
@<TRIPOS>BOND
     1    1    2 1
     2    2    7 ar
     3    2    3 ar
     4    3    4 ar
     5    4    5 ar
     6    5   11 ar
     7    5    6 ar
     8    6    7 ar
     9    6    8 ar
    10    8    9 ar
    11    9   10 ar
    12   10   11 ar
    13    8   12 1
    14   12   13 1
    15   13   14 1
    16   14   15 2
    17   14   16 1
    18    1   17 1
    19    1   18 1
    20    1   19 1
    21    3   20 1
    22    4   21 1
    23    7   22 1
    24   10   23 1
    25   12   24 1
    26   13   25 1
    27   13   26 1
    28   16   27 1
