@<TRIPOS>MOLECULE
~{N}-(1,3-benzodioxol-5-yl)-2-(1-methylimidazol-2-yl)sulfanyl-acetamide
   33    35     0     0     0
SMALL
USER_CHARGES

@<TRIPOS>ATOM
      1 C1          8.3393   -0.1252    0.7731 C.3       1 MOL         0.0178
      2 N1          7.8476    0.7864   -0.2319 N.pl3     1 MOL        -0.1729
      3 C2          8.6334    1.5589   -1.0501 C.2       1 MOL        -0.2644
      4 C3          7.8667    2.3215   -1.8994 C.2       1 MOL         0.3105
      5 N2          6.5754    2.0018   -1.5871 N.2       1 MOL        -0.6993
      6 C4          6.6139    1.0773   -0.5806 C.2       1 MOL         0.4481
      7 S1          5.1917    0.3491    0.1751 S.3       1 MOL        -0.1498
      8 C5          3.8799    1.1750   -0.7579 C.3       1 MOL        -0.1285
      9 C6          2.5395    0.6821   -0.2563 C.2       1 MOL         0.6855
     10 O1          2.0062   -0.3002   -0.7658 O.2       1 MOL        -0.5752
     11 N3          2.0647    1.4497    0.8006 N.am      1 MOL        -0.4688
     12 C7          0.8698    1.2830    1.5022 C.ar      1 MOL         0.0690
     13 C8          0.5508    2.1628    2.5515 C.ar      1 MOL        -0.1619
     14 C9         -0.6401    2.0145    3.2667 C.ar      1 MOL        -0.0874
     15 C10        -1.4798    0.9813    2.9050 C.ar      1 MOL         0.0283
     16 C11        -1.1675    0.1202    1.8779 C.ar      1 MOL         0.0832
     17 C12         0.0017    0.2448    1.1561 C.ar      1 MOL        -0.1669
     18 O2         -2.1276   -0.8249    1.6858 O.3       1 MOL        -0.3359
     19 C13        -3.0798   -0.4618    2.7065 C.3       1 MOL         0.3212
     20 O3         -2.6746    0.6833    3.4843 O.3       1 MOL        -0.3323
     21 H1          8.4725   -1.1039    0.3047 H         1 MOL         0.0598
     22 H2          9.2912    0.2439    1.1649 H         1 MOL         0.0598
     23 H3          7.6154   -0.1866    1.5905 H         1 MOL         0.0598
     24 H4          9.7104    1.5038   -0.9609 H         1 MOL         0.1783
     25 H5          8.1450    3.0305   -2.6622 H         1 MOL         0.0434
     26 H6          3.9711    0.9309   -1.8208 H         1 MOL         0.1081
     27 H7          3.9803    2.2588   -0.6508 H         1 MOL         0.1081
     28 H8          2.6460    2.2230    1.1165 H         1 MOL         0.3221
     29 H9          1.2320    2.9681    2.8171 H         1 MOL         0.1816
     30 H10        -0.8899    2.6917    4.0755 H         1 MOL         0.1592
     31 H11         0.2338   -0.4422    0.3489 H         1 MOL         0.1543
     32 H12        -4.0394   -0.2378    2.2268 H         1 MOL         0.0727
     33 H13        -3.2128   -1.3151    3.3816 H         1 MOL         0.0727
@<TRIPOS>BOND
     1    1    2 1
     2    2    6 1
     3    2    3 1
     4    3    4 2
     5    4    5 1
     6    5    6 2
     7    6    7 1
     8    7    8 1
     9    8    9 1
    10    9   10 2
    11    9   11 am
    12   11   12 1
    13   12   17 ar
    14   12   13 ar
    15   13   14 ar
    16   14   15 ar
    17   15   20 1
    18   15   16 ar
    19   16   17 ar
    20   16   18 1
    21   18   19 1
    22   19   20 1
    23    1   21 1
    24    1   22 1
    25    1   23 1
    26    3   24 1
    27    4   25 1
    28    8   26 1
    29    8   27 1
    30   11   28 1
    31   13   29 1
    32   14   30 1
    33   17   31 1
    34   19   32 1
    35   19   33 1
