@<TRIPOS>MOLECULE
(3~{S})-1-[2-(dimethylamino)ethyl]-5-oxo-pyrrolidine-3-carboxylic acid
   30    30     0     0     0
SMALL
USER_CHARGES

@<TRIPOS>ATOM
      1 C1          0.0273    7.2437   -1.7931 C.3       1 MOL         0.1417
      2 N1          0.6304    6.7944   -0.5388 N.3       1 MOL        -0.7110
      3 C2          2.0835    6.9533   -0.5846 C.3       1 MOL         0.1417
      4 C3          0.2826    5.4237   -0.2766 C.3       1 MOL         0.1288
      5 C4         -1.1116    5.2885    0.3121 C.3       1 MOL         0.1064
      6 N2         -1.4578    3.9081    0.5744 N.am      1 MOL        -0.4869
      7 C5         -2.1084    3.0915   -0.4255 C.3       1 MOL         0.0906
      8 C6         -2.0236    1.6882    0.1400 C.3       1 MOL        -0.1810
      9 H1         -2.8477    1.0665   -0.1475 H         1 MOL         0.0864
     10 C7         -1.9005    1.8769    1.6461 C.3       1 MOL        -0.1495
     11 C8         -1.3184    3.2638    1.7993 C.2       1 MOL         0.6993
     12 O1         -0.8565    3.7100    2.8393 O.2       1 MOL        -0.6070
     13 C9         -0.7601    1.0188   -0.3769 C.2       1 MOL         0.6303
     14 O2          0.3268    1.0602    0.1746 O.2       1 MOL        -0.4706
     15 O3         -1.0084    0.3704   -1.5392 O.3       1 MOL        -0.5768
     16 H2         -1.0583    7.1224   -1.7526 H         1 MOL         0.0356
     17 H3          0.4159    6.6578   -2.6305 H         1 MOL         0.0356
     18 H4          0.2574    8.2984   -1.9666 H         1 MOL         0.0356
     19 H5          2.5031    6.6132    0.3561 H         1 MOL         0.0356
     20 H6          2.3191    8.0010   -0.7393 H         1 MOL         0.0356
     21 H7          2.4776    6.3605   -1.4032 H         1 MOL         0.0356
     22 H8          0.3722    4.8772   -1.2208 H         1 MOL         0.0353
     23 H9          1.0262    5.0322    0.4245 H         1 MOL         0.0353
     24 H10        -1.1737    5.8221    1.2655 H         1 MOL         0.0705
     25 H11        -1.8709    5.6955   -0.3635 H         1 MOL         0.0705
     26 H12        -3.1464    3.4300   -0.5102 H         1 MOL         0.0528
     27 H13        -1.6016    3.2061   -1.3887 H         1 MOL         0.0528
     28 H14        -2.8850    1.8683    2.1254 H         1 MOL         0.1017
     29 H15        -1.2487    1.1400    2.1242 H         1 MOL         0.1017
     30 H16        -1.9464    0.4597   -1.8123 H         1 MOL         0.4233
@<TRIPOS>BOND
     1    1    2 1
     2    2    3 1
     3    2    4 1
     4    4    5 1
     5    5    6 1
     6    6   11 am
     7    6    7 1
     8    7    8 1
     9    8    9 1
    10    8   10 1
    11   10   11 1
    12   11   12 2
    13    8   13 1
    14   13   14 2
    15   13   15 1
    16    1   16 1
    17    1   17 1
    18    1   18 1
    19    3   19 1
    20    3   20 1
    21    3   21 1
    22    4   22 1
    23    4   23 1
    24    5   24 1
    25    5   25 1
    26    7   26 1
    27    7   27 1
    28   10   28 1
    29   10   29 1
    30   15   30 1
