@<TRIPOS>MOLECULE
(2~{S})-2-methyl-2-(2-methylpyrimidin-4-yl)morpholine
   29    30     0     0     0
SMALL
USER_CHARGES

@<TRIPOS>ATOM
      1 C1         -4.1161   -3.7787   -0.2053 C.3       1 MOL        -0.1358
      2 C2         -2.8227   -3.3471   -0.8087 C.ar      1 MOL         0.6486
      3 N1         -2.4338   -3.9938   -1.9241 N.ar      1 MOL        -0.7009
      4 C3         -1.2603   -3.5775   -2.4435 C.ar      1 MOL         0.4297
      5 C4         -0.4943   -2.5686   -1.8961 C.ar      1 MOL        -0.3750
      6 C5         -1.0031   -1.9858   -0.7535 C.ar      1 MOL         0.4547
      7 N2         -2.1686   -2.3515   -0.1806 N.ar      1 MOL        -0.6704
      8 C6         -0.2230   -0.8525   -0.0701 C.3       1 MOL         0.1086
      9 C7         -1.1388    0.1811    0.6337 C.3       1 MOL         0.1357
     10 N3         -0.3961    1.3571    1.0979 N.3       1 MOL        -0.8168
     11 C8          0.2895    1.9870   -0.0272 C.3       1 MOL         0.1229
     12 C9          1.2177    0.9852   -0.6936 C.3       1 MOL         0.1296
     13 O1          0.4987   -0.1708   -1.1182 O.3       1 MOL        -0.3894
     14 C10         0.7551   -1.5012    0.9310 C.3       1 MOL        -0.1140
     15 H1         -4.9398   -3.1963   -0.6293 H         1 MOL         0.0629
     16 H2         -4.3001   -4.8415   -0.3939 H         1 MOL         0.0629
     17 H3         -4.1063   -3.6396    0.8809 H         1 MOL         0.0629
     18 H4         -0.9421   -4.0951   -3.3426 H         1 MOL         0.0273
     19 H5          0.4430   -2.2618   -2.3421 H         1 MOL         0.1522
     20 H6         -1.9286    0.5180   -0.0520 H         1 MOL         0.0418
     21 H7         -1.6441   -0.2843    1.4887 H         1 MOL         0.0418
     22 H8         -1.0452    2.0230    1.5158 H         1 MOL         0.3680
     23 H9         -0.4500    2.3566   -0.7478 H         1 MOL         0.0393
     24 H10         0.8651    2.8474    0.3289 H         1 MOL         0.0393
     25 H11         1.6673    1.4365   -1.5843 H         1 MOL         0.0565
     26 H12         2.0418    0.6919   -0.0343 H         1 MOL         0.0565
     27 H13         1.3283   -0.7275    1.4372 H         1 MOL         0.0537
     28 H14         1.4364   -2.1634    0.4010 H         1 MOL         0.0537
     29 H15         0.1978   -2.0752    1.6684 H         1 MOL         0.0537
@<TRIPOS>BOND
     1    1    2 1
     2    2    7 ar
     3    2    3 ar
     4    3    4 ar
     5    4    5 ar
     6    5    6 ar
     7    6    7 ar
     8    6    8 1
     9    8   13 1
    10    8    9 1
    11    9   10 1
    12   10   11 1
    13   11   12 1
    14   12   13 1
    15    8   14 1
    16    1   15 1
    17    1   16 1
    18    1   17 1
    19    4   18 1
    20    5   19 1
    21    9   20 1
    22    9   21 1
    23   10   22 1
    24   11   23 1
    25   11   24 1
    26   12   25 1
    27   12   26 1
    28   14   27 1
    29   14   28 1
    30   14   29 1
