@<TRIPOS>MOLECULE
~{N}4-benzyl-1,3,5-triazine-2,4-diamine
   26    27     0     0     0
SMALL
USER_CHARGES

@<TRIPOS>ATOM
      1 C1          1.8851   -1.0366   -0.1124 C.ar      1 MOL        -0.1191
      2 C2          2.7729   -1.8424    0.6005 C.ar      1 MOL        -0.1330
      3 C3          2.7302   -1.8634    1.9945 C.ar      1 MOL        -0.1102
      4 C4          1.7997   -1.0786    2.6757 C.ar      1 MOL        -0.1209
      5 C5          0.9119   -0.2729    1.9627 C.ar      1 MOL        -0.1102
      6 C6          0.9545   -0.2519    0.5687 C.ar      1 MOL        -0.1330
      7 C7          1.7548   -1.1014    4.1663 C.3       1 MOL         0.2748
      8 N1          0.8616   -2.1127    4.6720 N.pl3     1 MOL        -0.8625
      9 C8          0.6391   -2.3410    6.0222 C.ar      1 MOL         0.9302
     10 N2         -0.2250   -3.3205    6.3342 N.ar      1 MOL        -0.8209
     11 C9         -0.3912   -3.4828    7.6566 C.ar      1 MOL         0.7094
     12 N3          0.2074   -2.7798    8.6316 N.ar      1 MOL        -0.8255
     13 C10         1.0434   -1.8353    8.1711 C.ar      1 MOL         0.9326
     14 N4          1.3088   -1.5589    6.8842 N.ar      1 MOL        -0.8577
     15 N5          1.7116   -1.0533    9.1382 N.pl3     1 MOL        -0.9620
     16 H1          1.9173   -1.0212   -1.1980 H         1 MOL         0.1335
     17 H2          3.4968   -2.4543    0.0704 H         1 MOL         0.1349
     18 H3          3.4259   -2.4941    2.5416 H         1 MOL         0.1385
     19 H4          0.1836    0.3419    2.4850 H         1 MOL         0.1385
     20 H5          0.2624    0.3747    0.0137 H         1 MOL         0.1349
     21 H6          2.7497   -1.2983    4.5895 H         1 MOL         0.0601
     22 H7          1.4220   -0.1370    4.5741 H         1 MOL         0.0601
     23 H8          0.3642   -2.6921    4.0030 H         1 MOL         0.4606
     24 H9         -1.0763   -4.2610    7.9689 H         1 MOL         0.0505
     25 H10         1.5061   -1.1959   10.1056 H         1 MOL         0.4482
     26 H11         2.3059   -0.3091    8.8355 H         1 MOL         0.4482
@<TRIPOS>BOND
     1    1    6 ar
     2    1    2 ar
     3    2    3 ar
     4    3    4 ar
     5    4    5 ar
     6    5    6 ar
     7    4    7 1
     8    7    8 1
     9    8    9 1
    10    9   14 ar
    11    9   10 ar
    12   10   11 ar
    13   11   12 ar
    14   12   13 ar
    15   13   14 ar
    16   13   15 1
    17    1   16 1
    18    2   17 1
    19    3   18 1
    20    5   19 1
    21    6   20 1
    22    7   21 1
    23    7   22 1
    24    8   23 1
    25   11   24 1
    26   15   25 1
    27   15   26 1
