@<TRIPOS>MOLECULE
4-amino-~{N}-(2,6-dimethoxypyrimidin-4-yl)benzenesulfonamide
   35    36     0     0     0
SMALL
USER_CHARGES

@<TRIPOS>ATOM
      1 C1          7.0998   -5.1485    0.9792 C.3       1 MOL         0.1245
      2 O1          6.6860   -3.8564    0.5506 O.3       1 MOL        -0.4388
      3 C2          5.6328   -3.8046   -0.3237 C.ar      1 MOL         0.6897
      4 C3          5.1884   -2.5769   -0.7702 C.ar      1 MOL        -0.4181
      5 C4          4.1225   -2.6102   -1.6460 C.ar      1 MOL         0.7194
      6 N1          3.5286   -3.7484   -2.0609 N.ar      1 MOL        -0.7179
      7 C5          4.0535   -4.8805   -1.5546 C.ar      1 MOL         0.8961
      8 N2          5.0866   -4.9806   -0.6966 N.ar      1 MOL        -0.8314
      9 O2          3.4737   -6.0607   -1.9584 O.3       1 MOL        -0.4094
     10 C6          2.3854   -5.9558   -2.8649 C.3       1 MOL         0.1263
     11 N3          3.5845   -1.3844   -2.1716 N.pl3     1 MOL        -0.8970
     12 S1          1.9376   -1.0108   -1.8574 S.o2      1 MOL         1.5333
     13 O3          1.6682    0.3354   -2.3270 O.2       1 MOL        -0.6503
     14 O4          1.0861   -2.1056   -2.2814 O.2       1 MOL        -0.6503
     15 C7          1.9037   -0.9542   -0.1127 C.ar      1 MOL        -0.4705
     16 C8          1.6279   -2.1101    0.6177 C.ar      1 MOL         0.0399
     17 C9          1.5999   -2.0643    2.0115 C.ar      1 MOL        -0.2463
     18 C10         1.8476   -0.8625    2.6750 C.ar      1 MOL         0.2586
     19 C11         2.1233    0.2934    1.9445 C.ar      1 MOL        -0.2463
     20 C12         2.1513    0.2476    0.5507 C.ar      1 MOL         0.0399
     21 N4          1.8185   -0.8168    4.0843 N.pl3     1 MOL        -0.8672
     22 H1          7.9418   -5.0521    1.6689 H         1 MOL         0.0547
     23 H2          7.3923   -5.7449    0.1113 H         1 MOL         0.0547
     24 H3          6.2670   -5.6370    1.4905 H         1 MOL         0.0547
     25 H4          5.6478   -1.6496   -0.4503 H         1 MOL         0.1766
     26 H5          2.0181   -6.9551   -3.1046 H         1 MOL         0.0539
     27 H6          2.7186   -5.4475   -3.7714 H         1 MOL         0.0539
     28 H7          1.5897   -5.3775   -2.3926 H         1 MOL         0.0539
     29 H8          4.2376   -0.5899   -2.1653 H         1 MOL         0.4662
     30 H9          1.4325   -3.0509    0.1103 H         1 MOL         0.1525
     31 H10         1.3853   -2.9715    2.5705 H         1 MOL         0.1396
     32 H11         2.3186    1.2350    2.4514 H         1 MOL         0.1396
     33 H12         2.3665    1.1544   -0.0080 H         1 MOL         0.1525
     34 H13         2.0439    0.0392    4.5494 H         1 MOL         0.4313
     35 H14         1.6658   -1.6619    4.5966 H         1 MOL         0.4313
@<TRIPOS>BOND
     1    1    2 1
     2    2    3 1
     3    3    8 ar
     4    3    4 ar
     5    4    5 ar
     6    5    6 ar
     7    6    7 ar
     8    7    8 ar
     9    7    9 1
    10    9   10 1
    11    5   11 1
    12   11   12 1
    13   12   13 2
    14   12   14 2
    15   12   15 1
    16   15   20 ar
    17   15   16 ar
    18   16   17 ar
    19   17   18 ar
    20   18   19 ar
    21   19   20 ar
    22   18   21 1
    23    1   22 1
    24    1   23 1
    25    1   24 1
    26    4   25 1
    27   10   26 1
    28   10   27 1
    29   10   28 1
    30   11   29 1
    31   16   30 1
    32   17   31 1
    33   19   32 1
    34   20   33 1
    35   21   34 1
    36   21   35 1
