@<TRIPOS>MOLECULE
2-[(6-methyl-1,1-dioxo-4~{H}-1$l^{6},2,4-benzothiadiazin-3-yl)sulfanyl]-1-pyrrolidin-1-yl-ethanone
   39    41     0     0     0
SMALL
USER_CHARGES

@<TRIPOS>ATOM
      1 C1         -0.4724    3.5518    7.1001 C.3       1 MOL        -0.0692
      2 C2         -0.7139    2.1667    7.5990 C.ar      1 MOL         0.0100
      3 C3         -1.0837    1.9610    8.9281 C.ar      1 MOL        -0.1710
      4 C4         -1.3097    0.6691    9.3949 C.ar      1 MOL         0.0092
      5 C5         -1.1609   -0.4046    8.5166 C.ar      1 MOL        -0.4054
      6 C6         -0.7924   -0.2270    7.1827 C.ar      1 MOL         0.2367
      7 C7         -0.5693    1.0794    6.7324 C.ar      1 MOL        -0.1989
      8 N1         -0.6482   -1.3141    6.3161 N.pl3     1 MOL        -0.7495
      9 C8         -0.8575   -2.6090    6.7150 C.2       1 MOL         0.8122
     10 N2         -1.2021   -3.0568    7.8793 N.2       1 MOL        -0.8275
     11 S1         -1.4512   -2.0368    9.1259 S.o2      1 MOL         1.5561
     12 O1         -0.4268   -2.2629   10.1293 O.2       1 MOL        -0.6392
     13 O2         -2.8570   -2.0707    9.4862 O.2       1 MOL        -0.6392
     14 S2         -0.6171   -3.8120    5.4477 S.3       1 MOL        -0.1204
     15 C9         -2.2978   -3.8579    4.7989 C.3       1 MOL        -0.1201
     16 C10        -2.5345   -2.6902    3.8750 C.2       1 MOL         0.6823
     17 O3         -1.8462   -2.5453    2.8635 O.2       1 MOL        -0.5890
     18 N3         -3.5474   -1.8273    4.2520 N.am      1 MOL        -0.4789
     19 C11        -4.3986   -1.9436    5.4319 C.3       1 MOL         0.0938
     20 C12        -5.1278   -0.6094    5.5065 C.3       1 MOL        -0.0921
     21 C13        -5.2279   -0.1927    4.0445 C.3       1 MOL        -0.0921
     22 C14        -3.8955   -0.6495    3.4709 C.3       1 MOL         0.0938
     23 H1         -1.4028    3.9774    6.7117 H         1 MOL         0.0544
     24 H2         -0.0958    4.1959    7.9015 H         1 MOL         0.0544
     25 H3          0.2783    3.5546    6.3027 H         1 MOL         0.0544
     26 H4         -1.1970    2.8033    9.6057 H         1 MOL         0.1454
     27 H5         -1.5966    0.5138   10.4306 H         1 MOL         0.1534
     28 H6         -0.2810    1.2537    5.6976 H         1 MOL         0.1394
     29 H7         -0.3770   -1.1161    5.3596 H         1 MOL         0.4683
     30 H8         -2.4548   -4.7967    4.2557 H         1 MOL         0.0956
     31 H9         -3.0140   -3.8278    5.6280 H         1 MOL         0.0956
     32 H10        -5.0954   -2.7715    5.2618 H         1 MOL         0.0518
     33 H11        -3.8065   -2.1508    6.3273 H         1 MOL         0.0518
     34 H12        -6.1014   -0.6880    5.9977 H         1 MOL         0.0576
     35 H13        -4.5217    0.1193    6.0582 H         1 MOL         0.0576
     36 H14        -6.0507   -0.7330    3.5611 H         1 MOL         0.0576
     37 H15        -5.3976    0.8796    3.9149 H         1 MOL         0.0576
     38 H16        -3.9452   -0.8888    2.4045 H         1 MOL         0.0518
     39 H17        -3.1112    0.0988    3.6299 H         1 MOL         0.0518
@<TRIPOS>BOND
     1    1    2 1
     2    2    7 ar
     3    2    3 ar
     4    3    4 ar
     5    4    5 ar
     6    5   11 1
     7    5    6 ar
     8    6    7 ar
     9    6    8 1
    10    8    9 1
    11    9   10 2
    12   10   11 1
    13   11   12 2
    14   11   13 2
    15    9   14 1
    16   14   15 1
    17   15   16 1
    18   16   17 2
    19   16   18 am
    20   18   22 1
    21   18   19 1
    22   19   20 1
    23   20   21 1
    24   21   22 1
    25    1   23 1
    26    1   24 1
    27    1   25 1
    28    3   26 1
    29    4   27 1
    30    7   28 1
    31    8   29 1
    32   15   30 1
    33   15   31 1
    34   19   32 1
    35   19   33 1
    36   20   34 1
    37   20   35 1
    38   21   36 1
    39   21   37 1
    40   22   38 1
    41   22   39 1
