@<TRIPOS>MOLECULE
~{N}-benzyl-3-[2-(pyridine-4-carbonyl)hydrazino]propanamide
   40    41     0     0     0
SMALL
USER_CHARGES

@<TRIPOS>ATOM
      1 C1         -2.5375    0.9398   -1.7502 C.ar      1 MOL        -0.1198
      2 C2         -2.0231    1.6886   -0.6917 C.ar      1 MOL        -0.1326
      3 C3         -0.9399    1.2057    0.0426 C.ar      1 MOL        -0.1135
      4 C4         -0.3710   -0.0259   -0.2818 C.ar      1 MOL        -0.1170
      5 C5         -0.8853   -0.7746   -1.3404 C.ar      1 MOL        -0.1135
      6 C6         -1.9685   -0.2917   -2.0746 C.ar      1 MOL        -0.1326
      7 C7          0.7948   -0.5451    0.5091 C.3       1 MOL         0.1477
      8 N1          2.0584   -0.1208   -0.0484 N.am      1 MOL        -0.5808
      9 C8          2.7450   -0.8534   -1.0055 C.2       1 MOL         0.6628
     10 O1          2.3723   -1.9221   -1.4817 O.2       1 MOL        -0.6075
     11 C9          4.0386   -0.1694   -1.4101 C.3       1 MOL        -0.1577
     12 C10         4.8101   -0.9562   -2.4608 C.3       1 MOL         0.1321
     13 N2          6.0244   -0.2558   -2.8010 N.3       1 MOL        -0.5635
     14 N3          6.7454   -0.9593   -3.7615 N.am      1 MOL        -0.4215
     15 C11         7.0100   -0.3549   -4.9778 C.2       1 MOL         0.6689
     16 O2          6.6572    0.7778   -5.2973 O.2       1 MOL        -0.5410
     17 C12         7.7669   -1.1808   -5.9544 C.ar      1 MOL        -0.1042
     18 C13         7.6871   -2.5680   -5.9051 C.ar      1 MOL        -0.2100
     19 C14         8.4118   -3.2929   -6.8373 C.ar      1 MOL         0.3883
     20 N4          9.1910   -2.7346   -7.7906 N.ar      1 MOL        -0.6454
     21 C15         9.2438   -1.3838   -7.8074 C.ar      1 MOL         0.3883
     22 C16         8.5579   -0.5694   -6.9208 C.ar      1 MOL        -0.2100
     23 H1         -3.3800    1.3163   -2.3229 H         1 MOL         0.1343
     24 H2         -2.4651    2.6480   -0.4396 H         1 MOL         0.1352
     25 H3         -0.5459    1.7959    0.8657 H         1 MOL         0.1368
     26 H4         -0.4485   -1.7353   -1.6001 H         1 MOL         0.1368
     27 H5         -2.3682   -0.8744   -2.8995 H         1 MOL         0.1352
     28 H6          0.7472   -0.1911    1.5447 H         1 MOL         0.0572
     29 H7          0.7929   -1.6398    0.5392 H         1 MOL         0.0572
     30 H8          2.4352    0.7706    0.2603 H         1 MOL         0.3142
     31 H9          3.7959    0.8300   -1.7920 H         1 MOL         0.0739
     32 H10         4.6550   -0.0368   -0.5121 H         1 MOL         0.0739
     33 H11         4.2041   -1.0896   -3.3634 H         1 MOL         0.0581
     34 H12         5.0609   -1.9546   -2.0866 H         1 MOL         0.0581
     35 H13         6.6326   -0.1855   -1.9800 H         1 MOL         0.3660
     36 H14         7.0722   -1.9015   -3.5725 H         1 MOL         0.2798
     37 H15         7.0806   -3.0772   -5.1635 H         1 MOL         0.1547
     38 H16         8.3843   -4.3774   -6.8408 H         1 MOL         0.0282
     39 H17         9.8740   -0.9563   -8.5801 H         1 MOL         0.0282
     40 H18         8.6425    0.5101   -6.9864 H         1 MOL         0.1547
@<TRIPOS>BOND
     1    1    6 ar
     2    1    2 ar
     3    2    3 ar
     4    3    4 ar
     5    4    5 ar
     6    5    6 ar
     7    4    7 1
     8    7    8 1
     9    8    9 am
    10    9   10 2
    11    9   11 1
    12   11   12 1
    13   12   13 1
    14   13   14 1
    15   14   15 am
    16   15   16 2
    17   15   17 1
    18   17   22 ar
    19   17   18 ar
    20   18   19 ar
    21   19   20 ar
    22   20   21 ar
    23   21   22 ar
    24    1   23 1
    25    2   24 1
    26    3   25 1
    27    5   26 1
    28    6   27 1
    29    7   28 1
    30    7   29 1
    31    8   30 1
    32   11   31 1
    33   11   32 1
    34   12   33 1
    35   12   34 1
    36   13   35 1
    37   14   36 1
    38   18   37 1
    39   19   38 1
    40   21   39 1
    41   22   40 1
