@<TRIPOS>MOLECULE
4-pyrazol-1-ylbenzoic acid
   22    23     0     0     0
SMALL
USER_CHARGES

@<TRIPOS>ATOM
      1 C1          2.5549   -1.2933   -3.5681 C.2       1 MOL        -0.2927
      2 C2          1.3237   -0.6185   -3.4649 C.2       1 MOL         0.3113
      3 N1          0.9350   -0.4456   -2.1988 N.2       1 MOL        -0.5034
      4 N2          1.9276   -1.0155   -1.4945 N.pl3     1 MOL         0.1397
      5 C3          2.9223   -1.5380   -2.2675 C.2       1 MOL        -0.1241
      6 C4          1.8851   -1.0363   -0.1124 C.ar      1 MOL         0.0749
      7 C5          2.9210   -1.6309    0.6081 C.ar      1 MOL        -0.1643
      8 C6          2.8783   -1.6520    2.0022 C.ar      1 MOL        -0.0509
      9 C7          1.7997   -1.0786    2.6757 C.ar      1 MOL        -0.1539
     10 C8          0.7638   -0.4841    1.9551 C.ar      1 MOL        -0.0509
     11 C9          0.8066   -0.4630    0.5610 C.ar      1 MOL        -0.1643
     12 C10         1.7558   -1.1006    4.1291 C.2       1 MOL         0.6540
     13 O1          2.6153   -1.5980    4.8641 O.2       1 MOL        -0.5545
     14 O2          0.6398   -0.4995    4.6254 O.3       1 MOL        -0.6069
     15 H1          3.0995   -1.5652   -4.4602 H         1 MOL         0.1710
     16 H2          0.6931   -0.2453   -4.2593 H         1 MOL         0.0483
     17 H3          3.7881   -2.0303   -1.8446 H         1 MOL         0.1804
     18 H4          3.7675   -2.0818    0.0957 H         1 MOL         0.1572
     19 H5          3.6913   -2.1172    2.5535 H         1 MOL         0.1621
     20 H6         -0.0813   -0.0341    2.4696 H         1 MOL         0.1621
     21 H7         -0.0074    0.0036    0.0115 H         1 MOL         0.1572
     22 H8          0.6011   -0.5083    5.6056 H         1 MOL         0.4477
@<TRIPOS>BOND
     1    1    5 2
     2    1    2 1
     3    2    3 2
     4    3    4 1
     5    4    5 1
     6    4    6 1
     7    6   11 ar
     8    6    7 ar
     9    7    8 ar
    10    8    9 ar
    11    9   10 ar
    12   10   11 ar
    13    9   12 1
    14   12   13 2
    15   12   14 1
    16    1   15 1
    17    2   16 1
    18    5   17 1
    19    7   18 1
    20    8   19 1
    21   10   20 1
    22   11   21 1
    23   14   22 1
