@<TRIPOS>MOLECULE
1-[(3~{R})-3-piperidyl]piperidine-4-carboxamide
   36    37     0     0     0
SMALL
USER_CHARGES

@<TRIPOS>ATOM
      1 C1         -2.6838    5.1160   -3.4360 C.3       1 MOL        -0.0740
      2 C2         -1.4998    4.1580   -3.3305 C.3       1 MOL        -0.1106
      3 C3         -1.0643    4.0113   -1.8694 C.3       1 MOL         0.1841
      4 H1         -1.8602    3.4997   -1.3123 H         1 MOL         0.0694
      5 C4         -0.8139    5.3851   -1.2355 C.3       1 MOL         0.1698
      6 N1         -1.9963    6.2432   -1.3460 N.3       1 MOL        -0.8263
      7 C5         -2.3850    6.4434   -2.7423 C.3       1 MOL         0.1646
      8 N2          0.1469    3.1945   -1.7908 N.3       1 MOL        -0.7163
      9 C6          0.6166    3.1061   -0.4025 C.3       1 MOL         0.1648
     10 C7          1.9277    2.3207   -0.3126 C.3       1 MOL        -0.0732
     11 C8          1.8316    0.9380   -0.9561 C.3       1 MOL        -0.1299
     12 C9          1.1737    1.0061   -2.3337 C.3       1 MOL        -0.0732
     13 C10        -0.0991    1.8580   -2.3472 C.3       1 MOL         0.1648
     14 C11         1.0971   -0.0072   -0.0502 C.2       1 MOL         0.6575
     15 O1          0.6203    0.3528    1.0250 O.2       1 MOL        -0.6119
     16 N3          1.0298   -1.2963   -0.5264 N.am      1 MOL        -0.6789
     17 H2         -3.5697    4.6535   -2.9826 H         1 MOL         0.0457
     18 H3         -2.9214    5.2945   -4.4908 H         1 MOL         0.0457
     19 H4         -1.7761    3.1834   -3.7505 H         1 MOL         0.0412
     20 H5         -0.6705    4.5452   -3.9374 H         1 MOL         0.0412
     21 H6         -0.5678    5.2694   -0.1732 H         1 MOL         0.0361
     22 H7          0.0453    5.8841   -1.7023 H         1 MOL         0.0361
     23 H8         -1.7858    7.1500   -0.9283 H         1 MOL         0.3652
     24 H9         -3.2749    7.0814   -2.7756 H         1 MOL         0.0271
     25 H10        -1.5923    6.9826   -3.2748 H         1 MOL         0.0271
     26 H11         0.7996    4.1135   -0.0086 H         1 MOL         0.0328
     27 H12        -0.1424    2.6420    0.2408 H         1 MOL         0.0328
     28 H13         2.7172    2.8916   -0.8191 H         1 MOL         0.0620
     29 H14         2.2255    2.2353    0.7396 H         1 MOL         0.0620
     30 H15         2.8420    0.5238   -1.0617 H         1 MOL         0.0547
     31 H16         1.8915    1.4365   -3.0445 H         1 MOL         0.0620
     32 H17         0.9364   -0.0017   -2.6957 H         1 MOL         0.0620
     33 H18        -0.4343    1.9468   -3.3880 H         1 MOL         0.0328
     34 H19        -0.8988    1.3457   -1.7971 H         1 MOL         0.0328
     35 H20         0.5585   -2.0235    0.0016 H         1 MOL         0.3100
     36 H21         1.4435   -1.5739   -1.4105 H         1 MOL         0.3100
@<TRIPOS>BOND
     1    1    7 1
     2    1    2 1
     3    2    3 1
     4    3    4 1
     5    3    5 1
     6    5    6 1
     7    6    7 1
     8    3    8 1
     9    8   13 1
    10    8    9 1
    11    9   10 1
    12   10   11 1
    13   11   12 1
    14   12   13 1
    15   11   14 1
    16   14   15 2
    17   14   16 am
    18    1   17 1
    19    1   18 1
    20    2   19 1
    21    2   20 1
    22    5   21 1
    23    5   22 1
    24    6   23 1
    25    7   24 1
    26    7   25 1
    27    9   26 1
    28    9   27 1
    29   10   28 1
    30   10   29 1
    31   11   30 1
    32   12   31 1
    33   12   32 1
    34   13   33 1
    35   13   34 1
    36   16   35 1
    37   16   36 1
