@<TRIPOS>MOLECULE
2-[4-(cyclopentylamino)quinazolin-2-yl]phenol
   42    45     0     0     0
SMALL
USER_CHARGES

@<TRIPOS>ATOM
      1 C1          3.8405    0.0853   -5.5397 C.ar      1 MOL        -0.1471
      2 C2          3.9085   -0.5092   -6.7948 C.ar      1 MOL        -0.1090
      3 C3          2.7358   -0.7878   -7.5030 C.ar      1 MOL        -0.1769
      4 C4          1.4803   -0.4835   -6.9826 C.ar      1 MOL         0.4358
      5 C5          1.4245    0.1170   -5.7142 C.ar      1 MOL        -0.2853
      6 C6          2.5992    0.4003   -4.9958 C.ar      1 MOL        -0.0864
      7 C7          0.1528    0.4061   -5.2275 C.ar      1 MOL         0.6920
      8 N1         -0.9854    0.1441   -5.8972 N.ar      1 MOL        -0.7619
      9 C8         -0.8088   -0.4303   -7.0979 C.ar      1 MOL         0.7444
     10 N2          0.3632   -0.7590   -7.6783 N.ar      1 MOL        -0.6916
     11 C9         -2.0003   -0.7300   -7.8483 C.ar      1 MOL        -0.1592
     12 C10        -2.1780   -0.1462   -9.1027 C.ar      1 MOL        -0.0620
     13 C11        -3.3255   -0.4247   -9.8453 C.ar      1 MOL        -0.1751
     14 C12        -4.2953   -1.2867   -9.3335 C.ar      1 MOL        -0.0793
     15 C13        -4.1177   -1.8704   -8.0791 C.ar      1 MOL        -0.2240
     16 C14        -2.9702   -1.5920   -7.3365 C.ar      1 MOL         0.1616
     17 O1         -2.8227   -2.1769   -6.1133 O.3       1 MOL        -0.4808
     18 N3          0.0203    0.9990   -3.9821 N.pl3     1 MOL        -0.8513
     19 C15        -1.2660    1.3430   -3.3803 C.3       1 MOL         0.2158
     20 C16        -1.0972    2.4315   -2.3229 C.3       1 MOL        -0.1015
     21 C17        -0.5763    1.7013   -1.0862 C.3       1 MOL        -0.0864
     22 C18        -1.0325    0.2481   -1.2326 C.3       1 MOL        -0.0864
     23 C19        -1.8047    0.1811   -2.5491 C.3       1 MOL        -0.1015
     24 H1          4.7506    0.3035   -4.9895 H         1 MOL         0.1347
     25 H2          4.8736   -0.7580   -7.2269 H         1 MOL         0.1340
     26 H3          2.8165   -1.2529   -8.4838 H         1 MOL         0.1546
     27 H4          2.5719    0.8648   -4.0136 H         1 MOL         0.1332
     28 H5         -1.4318    0.5282   -9.5162 H         1 MOL         0.1460
     29 H6         -3.4629    0.0288  -10.8223 H         1 MOL         0.1354
     30 H7         -5.1893   -1.5034   -9.9113 H         1 MOL         0.1330
     31 H8         -4.8781   -2.5399   -7.6863 H         1 MOL         0.1339
     32 H9         -3.5868   -2.7413   -5.9192 H         1 MOL         0.4182
     33 H10         0.8633    1.2074   -3.4586 H         1 MOL         0.4152
     34 H11        -1.9723    1.6398   -4.1452 H         1 MOL         0.0814
     35 H12        -0.3643    3.1879   -2.6475 H         1 MOL         0.0571
     36 H13        -2.0370    2.9655   -2.1215 H         1 MOL         0.0571
     37 H14         0.5122    1.7815   -1.0064 H         1 MOL         0.0420
     38 H15        -1.0068    2.1361   -0.1773 H         1 MOL         0.0420
     39 H16        -0.1876   -0.4473   -1.2313 H         1 MOL         0.0420
     40 H17        -1.6843   -0.0230   -0.3945 H         1 MOL         0.0420
     41 H18        -1.6126   -0.7844   -3.0447 H         1 MOL         0.0571
     42 H19        -2.8910    0.2499   -2.3942 H         1 MOL         0.0571
@<TRIPOS>BOND
     1    1    6 ar
     2    1    2 ar
     3    2    3 ar
     4    3    4 ar
     5    4   10 ar
     6    4    5 ar
     7    5    6 ar
     8    5    7 ar
     9    7    8 ar
    10    8    9 ar
    11    9   10 ar
    12    9   11 1
    13   11   16 ar
    14   11   12 ar
    15   12   13 ar
    16   13   14 ar
    17   14   15 ar
    18   15   16 ar
    19   16   17 1
    20    7   18 1
    21   18   19 1
    22   19   23 1
    23   19   20 1
    24   20   21 1
    25   21   22 1
    26   22   23 1
    27    1   24 1
    28    2   25 1
    29    3   26 1
    30    6   27 1
    31   12   28 1
    32   13   29 1
    33   14   30 1
    34   15   31 1
    35   17   32 1
    36   18   33 1
    37   19   34 1
    38   20   35 1
    39   20   36 1
    40   21   37 1
    41   21   38 1
    42   22   39 1
    43   22   40 1
    44   23   41 1
    45   23   42 1
