@<TRIPOS>MOLECULE
1-methylsulfonylpiperazine
   22    22     0     0     0
SMALL
USER_CHARGES

@<TRIPOS>ATOM
      1 C1         -4.3460    0.1025    2.9096 C.3       1 MOL        -0.3820
      2 S1         -2.6624   -0.2377    3.3598 S.o2      1 MOL         1.4560
      3 O1         -2.0870    0.9864    3.8807 O.2       1 MOL        -0.6467
      4 O2         -2.6492   -1.4645    4.1315 O.2       1 MOL        -0.6467
      5 N1         -2.0113   -0.5459    1.8059 N.pl3     1 MOL        -0.7784
      6 C2         -1.8445    0.6510    0.9316 C.3       1 MOL         0.2069
      7 C3         -1.0205    0.2735   -0.2960 C.3       1 MOL         0.1600
      8 N2         -1.6380   -0.8328   -1.0290 N.3       1 MOL        -0.8177
      9 C4         -1.7893   -2.0059   -0.1665 C.3       1 MOL         0.1600
     10 C5         -2.6312   -1.6819    1.0642 C.3       1 MOL         0.2069
     11 H1         -4.7890   -0.8135    2.5157 H         1 MOL         0.1144
     12 H2         -4.8807    0.4332    3.8012 H         1 MOL         0.1144
     13 H3         -4.3477    0.8856    2.1499 H         1 MOL         0.1144
     14 H4         -2.8297    1.0027    0.6064 H         1 MOL         0.0513
     15 H5         -1.3571    1.4551    1.4957 H         1 MOL         0.0513
     16 H6         -0.9059    1.1404   -0.9587 H         1 MOL         0.0410
     17 H7         -0.0159   -0.0261    0.0210 H         1 MOL         0.0410
     18 H8         -1.0536   -1.0754   -1.8284 H         1 MOL         0.3693
     19 H9         -2.2436   -2.8283   -0.7329 H         1 MOL         0.0410
     20 H10        -0.7973   -2.3427    0.1532 H         1 MOL         0.0410
     21 H11        -3.6398   -1.3989    0.7438 H         1 MOL         0.0513
     22 H12        -2.7080   -2.5542    1.7241 H         1 MOL         0.0513
@<TRIPOS>BOND
     1    1    2 1
     2    2    3 2
     3    2    4 2
     4    2    5 1
     5    5   10 1
     6    5    6 1
     7    6    7 1
     8    7    8 1
     9    8    9 1
    10    9   10 1
    11    1   11 1
    12    1   12 1
    13    1   13 1
    14    6   14 1
    15    6   15 1
    16    7   16 1
    17    7   17 1
    18    8   18 1
    19    9   19 1
    20    9   20 1
    21   10   21 1
    22   10   22 1
