@<TRIPOS>MOLECULE
~{N}-(3-cyano-4,5,6,7-tetrahydrobenzothiophen-2-yl)isoxazole-5-carboxamide
   30    32     0     0     0
SMALL
USER_CHARGES

@<TRIPOS>ATOM
      1 C1          1.8736    3.5446    0.5165 C.2       1 MOL        -0.2587
      2 C2          1.2640    4.6332   -0.1307 C.2       1 MOL         0.2898
      3 N1          0.1750    4.2716   -0.8150 N.2       1 MOL        -0.3183
      4 O1          0.0623    2.9013   -0.6131 O.3       1 MOL        -0.1195
      5 C3          1.0794    2.4801    0.1813 C.2       1 MOL         0.1882
      6 C4          1.1504    1.0492    0.5234 C.2       1 MOL         0.5914
      7 O2          2.0501    0.6136    1.2387 O.2       1 MOL        -0.5715
      8 N2          0.1077    0.2802    0.0043 N.am      1 MOL        -0.4186
      9 C5         -0.1139   -1.0596    0.1803 C.2       1 MOL         0.0480
     10 C6         -1.1070   -1.8908   -0.2915 C.2       1 MOL        -0.1098
     11 C7         -0.9377   -3.2369    0.1511 C.2       1 MOL        -0.0364
     12 C8          0.1890   -3.3690    0.9405 C.2       1 MOL        -0.1754
     13 S1          1.0196   -1.8982    1.1521 S.3       1 MOL         0.1588
     14 C9          0.6414   -4.6407    1.5873 C.3       1 MOL         0.0023
     15 C10        -0.0642   -5.8499    0.9531 C.3       1 MOL        -0.0720
     16 C11        -1.5651   -5.5937    0.7530 C.3       1 MOL        -0.0746
     17 C12        -1.8160   -4.4023   -0.1847 C.3       1 MOL        -0.0193
     18 C13        -2.1693   -1.4286   -1.1316 C.1       1 MOL         0.2594
     19 N3         -3.0303   -1.0541   -1.8126 N.1       1 MOL        -0.3779
     20 H1          2.7592    3.5380    1.1345 H         1 MOL         0.1962
     21 H2          1.5638    5.6708   -0.1343 H         1 MOL         0.0623
     22 H3         -0.6009    0.7524   -0.5518 H         1 MOL         0.3547
     23 H4          1.7265   -4.7649    1.4979 H         1 MOL         0.0503
     24 H5          0.3987   -4.5999    2.6561 H         1 MOL         0.0503
     25 H6          0.3928   -6.0724   -0.0198 H         1 MOL         0.0452
     26 H7          0.0842   -6.7325    1.5855 H         1 MOL         0.0452
     27 H8         -2.0470   -6.4888    0.3439 H         1 MOL         0.0451
     28 H9         -2.0283   -5.3977    1.7285 H         1 MOL         0.0451
     29 H10        -1.6115   -4.7070   -1.2187 H         1 MOL         0.0598
     30 H11        -2.8730   -4.1188   -0.1287 H         1 MOL         0.0598
@<TRIPOS>BOND
     1    1    5 2
     2    1    2 1
     3    2    3 2
     4    3    4 1
     5    4    5 1
     6    5    6 1
     7    6    7 2
     8    6    8 am
     9    8    9 1
    10    9   13 1
    11    9   10 2
    12   10   11 1
    13   11   17 1
    14   11   12 2
    15   12   13 1
    16   12   14 1
    17   14   15 1
    18   15   16 1
    19   16   17 1
    20   10   18 1
    21   18   19 3
    22    1   20 1
    23    2   21 1
    24    8   22 1
    25   14   23 1
    26   14   24 1
    27   15   25 1
    28   15   26 1
    29   16   27 1
    30   16   28 1
    31   17   29 1
    32   17   30 1
