@<TRIPOS>MOLECULE
2-[4-[(~{Z})-1,2-diphenylbut-1-enyl]phenoxy]-~{N},~{N}-dimethyl-ethanamine
   57    59     0     0     0
SMALL
USER_CHARGES

@<TRIPOS>ATOM
      1 C1         -1.3730   -6.3578    5.6123 C.3       1 MOL        -0.0867
      2 C2          0.0000   -5.7404    5.8497 C.3       1 MOL        -0.0446
      3 C3          1.1234   -6.5440    5.2115 C.2       1 MOL        -0.0355
      4 C4          1.5986   -6.3659    3.9486 C.2       1 MOL        -0.0106
      5 C5          1.0241   -5.3217    3.0608 C.ar      1 MOL        -0.0437
      6 C6         -0.0521   -5.6289    2.2282 C.ar      1 MOL        -0.1172
      7 C7         -0.5912   -4.6487    1.3950 C.ar      1 MOL        -0.1304
      8 C8         -0.0543   -3.3614    1.3943 C.ar      1 MOL        -0.1295
      9 C9          1.0219   -3.0542    2.2269 C.ar      1 MOL        -0.1304
     10 C10         1.5611   -4.0343    3.0601 C.ar      1 MOL        -0.1172
     11 C11         2.6781   -7.2089    3.4595 C.ar      1 MOL        -0.0728
     12 C12         4.0051   -6.8196    3.6417 C.ar      1 MOL        -0.0842
     13 C13         5.0400   -7.6289    3.1731 C.ar      1 MOL        -0.1735
     14 C14         4.7479   -8.8275    2.5222 C.ar      1 MOL         0.1226
     15 C15         3.4209   -9.2168    2.3400 C.ar      1 MOL        -0.1735
     16 C16         2.3860   -8.4075    2.8086 C.ar      1 MOL        -0.0842
     17 O1          5.7644   -9.6223    2.0619 O.3       1 MOL        -0.3375
     18 C17         5.5157  -11.0218    2.0241 C.3       1 MOL         0.1243
     19 C18         6.8198  -11.7712    2.2276 C.3       1 MOL         0.1641
     20 N1          6.5691  -13.2114    2.1895 N.3       1 MOL        -0.7465
     21 C19         7.6622  -13.9378    2.8344 C.3       1 MOL         0.1603
     22 C20         6.3986  -13.6641    0.8093 C.3       1 MOL         0.1603
     23 C21         1.7231   -7.5435    6.1308 C.ar      1 MOL        -0.0539
     24 C22         2.8060   -7.1894    6.9357 C.ar      1 MOL        -0.1167
     25 C23         3.3694   -8.1285    7.7995 C.ar      1 MOL        -0.1291
     26 C24         2.8500   -9.4218    7.8585 C.ar      1 MOL        -0.1288
     27 C25         1.7672   -9.7758    7.0536 C.ar      1 MOL        -0.1291
     28 C26         1.2038   -8.8366    6.1898 C.ar      1 MOL        -0.1167
     29 H1         -2.1649   -5.7640    6.0796 H         1 MOL         0.0362
     30 H2         -1.4096   -7.3649    6.0403 H         1 MOL         0.0362
     31 H3         -1.5954   -6.4438    4.5440 H         1 MOL         0.0362
     32 H4         -0.0142   -4.7090    5.4817 H         1 MOL         0.0523
     33 H5          0.1701   -5.6487    6.9300 H         1 MOL         0.0523
     34 H6         -0.4816   -6.6278    2.2175 H         1 MOL         0.1330
     35 H7         -1.4291   -4.8878    0.7465 H         1 MOL         0.1312
     36 H8         -0.4740   -2.5982    0.7455 H         1 MOL         0.1306
     37 H9          1.4399   -2.0517    2.2264 H         1 MOL         0.1312
     38 H10         2.4000   -3.7796    3.7034 H         1 MOL         0.1330
     39 H11         4.2495   -5.8885    4.1473 H         1 MOL         0.1332
     40 H12         6.0719   -7.3208    3.3188 H         1 MOL         0.1434
     41 H13         3.1864  -10.1497    1.8345 H         1 MOL         0.1434
     42 H14         1.3563   -8.7241    2.6603 H         1 MOL         0.1332
     43 H15         4.8156  -11.2624    2.8302 H         1 MOL         0.0485
     44 H16         5.0536  -11.2715    1.0635 H         1 MOL         0.0485
     45 H17         7.5437  -11.5282    1.4432 H         1 MOL         0.0466
     46 H18         7.2520  -11.5258    3.2024 H         1 MOL         0.0466
     47 H19         7.4501  -15.0007    2.7915 H         1 MOL         0.0320
     48 H20         7.7388  -13.6156    3.8675 H         1 MOL         0.0320
     49 H21         8.5870  -13.7220    2.3098 H         1 MOL         0.0320
     50 H22         6.2145  -14.7331    0.8113 H         1 MOL         0.0320
     51 H23         7.3027  -13.4438    0.2516 H         1 MOL         0.0320
     52 H24         5.5555  -13.1427    0.3687 H         1 MOL         0.0320
     53 H25         3.2220   -6.1853    6.9010 H         1 MOL         0.1315
     54 H26         4.2127   -7.8531    8.4261 H         1 MOL         0.1302
     55 H27         3.2887  -10.1531    8.5310 H         1 MOL         0.1302
     56 H28         1.3628  -10.7827    7.0997 H         1 MOL         0.1302
     57 H29         0.3601   -9.1277    5.5686 H         1 MOL         0.1315
@<TRIPOS>BOND
     1    1    2 1
     2    2    3 1
     3    3    4 2
     4    4    5 1
     5    5   10 ar
     6    5    6 ar
     7    6    7 ar
     8    7    8 ar
     9    8    9 ar
    10    9   10 ar
    11    4   11 1
    12   11   16 ar
    13   11   12 ar
    14   12   13 ar
    15   13   14 ar
    16   14   15 ar
    17   15   16 ar
    18   14   17 1
    19   17   18 1
    20   18   19 1
    21   19   20 1
    22   20   21 1
    23   20   22 1
    24    3   23 1
    25   23   28 ar
    26   23   24 ar
    27   24   25 ar
    28   25   26 ar
    29   26   27 ar
    30   27   28 ar
    31    1   29 1
    32    1   30 1
    33    1   31 1
    34    2   32 1
    35    2   33 1
    36    6   34 1
    37    7   35 1
    38    8   36 1
    39    9   37 1
    40   10   38 1
    41   12   39 1
    42   13   40 1
    43   15   41 1
    44   16   42 1
    45   18   43 1
    46   18   44 1
    47   19   45 1
    48   19   46 1
    49   21   47 1
    50   21   48 1
    51   21   49 1
    52   22   50 1
    53   22   51 1
    54   22   52 1
    55   24   53 1
    56   25   54 1
    57   26   55 1
    58   27   56 1
    59   28   57 1
