@<TRIPOS>MOLECULE
~{N},~{N}-dimethylpiperazine-1-sulfonamide
   27    27     0     0     0
SMALL
USER_CHARGES

@<TRIPOS>ATOM
      1 C1         -0.9341   -2.1709    4.2565 C.3       1 MOL         0.1794
      2 N1         -2.3530   -1.7429    4.1513 N.pl3     1 MOL        -0.7651
      3 C2         -3.1115   -2.0176    5.3991 C.3       1 MOL         0.1794
      4 S1         -2.6624   -0.2377    3.3598 S.o2      1 MOL         1.5385
      5 O1         -4.0970   -0.0649    3.2247 O.2       1 MOL        -0.6530
      6 O2         -1.8633    0.7967    3.9902 O.2       1 MOL        -0.6530
      7 N2         -2.0113   -0.5459    1.8059 N.pl3     1 MOL        -0.8074
      8 C3         -1.8445    0.6510    0.9316 C.3       1 MOL         0.2197
      9 C4         -1.0205    0.2735   -0.2960 C.3       1 MOL         0.1591
     10 N3         -1.6380   -0.8328   -1.0290 N.3       1 MOL        -0.8193
     11 C5         -1.7893   -2.0059   -0.1665 C.3       1 MOL         0.1591
     12 C6         -2.6312   -1.6819    1.0642 C.3       1 MOL         0.2197
     13 H1         -0.4064   -1.9549    3.3240 H         1 MOL         0.0496
     14 H2         -0.8770   -3.2451    4.4526 H         1 MOL         0.0496
     15 H3         -0.4384   -1.6388    5.0729 H         1 MOL         0.0496
     16 H4         -4.1240   -1.6823    5.2469 H         1 MOL         0.0496
     17 H5         -2.6377   -1.4731    6.1992 H         1 MOL         0.0496
     18 H6         -3.0763   -3.0794    5.5789 H         1 MOL         0.0496
     19 H7         -2.8297    1.0027    0.6064 H         1 MOL         0.0576
     20 H8         -1.3571    1.4551    1.4957 H         1 MOL         0.0576
     21 H9         -0.9059    1.1404   -0.9587 H         1 MOL         0.0364
     22 H10        -0.0159   -0.0261    0.0210 H         1 MOL         0.0364
     23 H11        -1.0536   -1.0754   -1.8284 H         1 MOL         0.3690
     24 H12        -2.2436   -2.8283   -0.7329 H         1 MOL         0.0364
     25 H13        -0.7973   -2.3427    0.1532 H         1 MOL         0.0364
     26 H14        -3.6398   -1.3989    0.7438 H         1 MOL         0.0576
     27 H15        -2.7080   -2.5542    1.7241 H         1 MOL         0.0576
@<TRIPOS>BOND
     1    1    2 1
     2    2    3 1
     3    2    4 1
     4    4    5 2
     5    4    6 2
     6    4    7 1
     7    7   12 1
     8    7    8 1
     9    8    9 1
    10    9   10 1
    11   10   11 1
    12   11   12 1
    13    1   13 1
    14    1   14 1
    15    1   15 1
    16    3   16 1
    17    3   17 1
    18    3   18 1
    19    8   19 1
    20    8   20 1
    21    9   21 1
    22    9   22 1
    23   10   23 1
    24   11   24 1
    25   11   25 1
    26   12   26 1
    27   12   27 1
