@<TRIPOS>MOLECULE
(2~{R})-2-(3-fluoro-4-phenyl-phenyl)propanoic acid
   31    32     0     0     0
SMALL
USER_CHARGES

@<TRIPOS>ATOM
      1 C1          0.9745   -1.0772   -0.4101 C.3       1 MOL        -0.0998
      2 C2          1.9323   -1.0136   -1.6027 C.3       1 MOL        -0.1035
      3 H1          2.8873   -1.4556   -1.2873 H         1 MOL         0.0767
      4 C3          2.2108    0.3821   -2.0476 C.ar      1 MOL        -0.0531
      5 C4          3.5177    0.8697   -2.0340 C.ar      1 MOL        -0.1305
      6 C5          3.7795    2.1748   -2.4507 C.ar      1 MOL        -0.0927
      7 C6          2.7344    2.9925   -2.8808 C.ar      1 MOL        -0.0602
      8 C7          1.4276    2.5049   -2.8943 C.ar      1 MOL         0.1384
      9 C8          1.1658    1.1997   -2.4777 C.ar      1 MOL        -0.1484
     10 F1          0.4121    3.2782   -3.3060 F         1 MOL        -0.1330
     11 C9          3.0110    4.3456   -3.3126 C.ar      1 MOL        -0.0504
     12 C10         2.4198    5.4228   -2.6524 C.ar      1 MOL        -0.1078
     13 C11         2.6863    6.7272   -3.0685 C.ar      1 MOL        -0.1316
     14 C12         3.5440    6.9545   -4.1448 C.ar      1 MOL        -0.1223
     15 C13         4.1352    5.8773   -4.8050 C.ar      1 MOL        -0.1316
     16 C14         3.8687    4.5729   -4.3889 C.ar      1 MOL        -0.1078
     17 C15         1.4021   -1.8627   -2.7491 C.2       1 MOL         0.6222
     18 O1          0.2199   -2.0785   -2.9823 O.2       1 MOL        -0.4683
     19 O2          2.4032   -2.3765   -3.5116 O.3       1 MOL        -0.5843
     20 H2         -0.0064   -0.6518   -0.6491 H         1 MOL         0.0512
     21 H3          0.8273   -2.1099   -0.0753 H         1 MOL         0.0512
     22 H4          1.3684   -0.5053    0.4374 H         1 MOL         0.0512
     23 H5          4.3379    0.2398   -1.7005 H         1 MOL         0.1381
     24 H6          4.8034    2.5404   -2.4337 H         1 MOL         0.1463
     25 H7          0.1445    0.8288   -2.4915 H         1 MOL         0.1520
     26 H8          1.7498    5.2619   -1.8111 H         1 MOL         0.1383
     27 H9          2.2265    7.5657   -2.5536 H         1 MOL         0.1334
     28 H10         3.7513    7.9703   -4.4684 H         1 MOL         0.1324
     29 H11         4.8021    6.0547   -5.6436 H         1 MOL         0.1334
     30 H12         4.3361    3.7436   -4.9145 H         1 MOL         0.1383
     31 H13         3.3115   -2.1364   -3.2301 H         1 MOL         0.4222
@<TRIPOS>BOND
     1    1    2 1
     2    2    3 1
     3    2    4 1
     4    4    9 ar
     5    4    5 ar
     6    5    6 ar
     7    6    7 ar
     8    7    8 ar
     9    8    9 ar
    10    8   10 1
    11    7   11 1
    12   11   16 ar
    13   11   12 ar
    14   12   13 ar
    15   13   14 ar
    16   14   15 ar
    17   15   16 ar
    18    2   17 1
    19   17   18 2
    20   17   19 1
    21    1   20 1
    22    1   21 1
    23    1   22 1
    24    5   23 1
    25    6   24 1
    26    9   25 1
    27   12   26 1
    28   13   27 1
    29   14   28 1
    30   15   29 1
    31   16   30 1
    32   19   31 1
