@<TRIPOS>MOLECULE
2-[4-[(2~{R})-2-hydroxy-3-(isopropylamino)propoxy]phenyl]acetamide
   41    41     0     0     0
SMALL
USER_CHARGES

@<TRIPOS>ATOM
      1 C1          5.2619   -1.7370    3.1414 C.3       1 MOL        -0.0953
      2 C2          5.0437   -1.1034    1.7751 C.3       1 MOL         0.1839
      3 C3          6.0337    0.0217    1.5112 C.3       1 MOL        -0.0953
      4 N1          3.6911   -0.5666    1.7088 N.3       1 MOL        -0.8381
      5 C4          2.7330   -1.6130    1.4348 C.3       1 MOL         0.1340
      6 C5          1.3103   -1.0582    1.3635 C.3       1 MOL         0.1343
      7 H1          1.2526   -0.3114    0.5627 H         1 MOL         0.0496
      8 C6          0.8418   -0.4308    2.6728 C.3       1 MOL         0.1365
      9 O1          0.8741   -1.4219    3.6954 O.3       1 MOL        -0.3263
     10 C7          1.1128   -0.9829    4.9701 C.ar      1 MOL         0.1307
     11 C8          1.7619   -1.8136    5.8836 C.ar      1 MOL        -0.1704
     12 C9          2.0044   -1.3669    7.1825 C.ar      1 MOL        -0.0847
     13 C10         1.5978   -0.0895    7.5681 C.ar      1 MOL        -0.1047
     14 C11         0.9487    0.7411    6.6547 C.ar      1 MOL        -0.0847
     15 C12         0.7061    0.2944    5.3557 C.ar      1 MOL        -0.1704
     16 C13         1.8575    0.3879    8.9568 C.3       1 MOL        -0.0973
     17 C14         3.1916    1.0972    9.1225 C.2       1 MOL         0.6561
     18 O2          3.9904    1.2678    8.2057 O.2       1 MOL        -0.5953
     19 N2          3.4073    1.5322   10.4131 N.am      1 MOL        -0.6895
     20 O3          0.4040   -2.1041    1.0113 O.3       1 MOL        -0.5856
     21 H2          4.5429   -2.5438    3.3165 H         1 MOL         0.0400
     22 H3          6.2713   -2.1536    3.2325 H         1 MOL         0.0400
     23 H4          5.1394   -0.9948    3.9379 H         1 MOL         0.0400
     24 H5          5.1432   -1.8671    0.9961 H         1 MOL         0.0200
     25 H6          5.8625    0.4660    0.5246 H         1 MOL         0.0400
     26 H7          7.0632   -0.3497    1.5417 H         1 MOL         0.0400
     27 H8          5.9376    0.8220    2.2536 H         1 MOL         0.0400
     28 H9          3.6440    0.1336    0.9691 H         1 MOL         0.3647
     29 H10         2.8038   -2.3593    2.2332 H         1 MOL         0.0354
     30 H11         2.9964   -2.1039    0.4921 H         1 MOL         0.0354
     31 H12        -0.1859   -0.0645    2.5879 H         1 MOL         0.0599
     32 H13         1.4996    0.3868    2.9846 H         1 MOL         0.0599
     33 H14         2.0813   -2.8096    5.5890 H         1 MOL         0.1450
     34 H15         2.5113   -2.0210    7.8874 H         1 MOL         0.1313
     35 H16         0.6285    1.7378    6.9461 H         1 MOL         0.1313
     36 H17         0.2004    0.9462    4.6484 H         1 MOL         0.1450
     37 H18         1.0630    1.0797    9.2816 H         1 MOL         0.0651
     38 H19         1.8279   -0.4570    9.6642 H         1 MOL         0.0651
     39 H20         2.7322    1.3832   11.1561 H         1 MOL         0.3082
     40 H21         4.2599    2.0223   10.6628 H         1 MOL         0.3082
     41 H22         0.6903   -2.4341    0.1464 H         1 MOL         0.3986
@<TRIPOS>BOND
     1    1    2 1
     2    2    3 1
     3    2    4 1
     4    4    5 1
     5    5    6 1
     6    6    7 1
     7    6    8 1
     8    8    9 1
     9    9   10 1
    10   10   15 ar
    11   10   11 ar
    12   11   12 ar
    13   12   13 ar
    14   13   14 ar
    15   14   15 ar
    16   13   16 1
    17   16   17 1
    18   17   18 2
    19   17   19 am
    20    6   20 1
    21    1   21 1
    22    1   22 1
    23    1   23 1
    24    2   24 1
    25    3   25 1
    26    3   26 1
    27    3   27 1
    28    4   28 1
    29    5   29 1
    30    5   30 1
    31    8   31 1
    32    8   32 1
    33   11   33 1
    34   12   34 1
    35   14   35 1
    36   15   36 1
    37   16   37 1
    38   16   38 1
    39   19   39 1
    40   19   40 1
    41   20   41 1
