@<TRIPOS>MOLECULE
(2~{S})-1-(isopropylamino)-3-[4-(2-methoxyethyl)phenoxy]propan-2-ol
   44    44     0     0     0
SMALL
USER_CHARGES

@<TRIPOS>ATOM
      1 C1         -0.2434   -0.0921    5.8624 C.3       1 MOL        -0.0949
      2 C2         -0.2070   -1.1787    4.7975 C.3       1 MOL         0.1807
      3 C3          0.3004   -2.4994    5.3576 C.3       1 MOL        -0.0949
      4 N1          0.6717   -0.7566    3.7152 N.3       1 MOL        -0.8248
      5 C4          0.3921   -1.4951    2.5050 C.3       1 MOL         0.1296
      6 C5          1.3103   -1.0582    1.3635 C.3       1 MOL         0.1314
      7 H1          1.1591    0.0096    1.1656 H         1 MOL         0.1114
      8 C6          2.7875   -1.3161    1.6442 C.3       1 MOL         0.0913
      9 O1          2.9799   -2.7124    1.8494 O.3       1 MOL        -0.3178
     10 C7          3.9973   -3.0760    2.6906 C.ar      1 MOL         0.1149
     11 C8          3.9009   -4.2527    3.4335 C.ar      1 MOL        -0.1709
     12 C9          4.9368   -4.6229    4.2911 C.ar      1 MOL        -0.0982
     13 C10         6.0690   -3.8163    4.4059 C.ar      1 MOL        -0.1106
     14 C11         6.1653   -2.6396    3.6631 C.ar      1 MOL        -0.0982
     15 C12         5.1294   -2.2695    2.8054 C.ar      1 MOL        -0.1709
     16 C13         7.1765   -4.2125    5.3227 C.3       1 MOL        -0.0360
     17 C14         7.0113   -3.6611    6.7405 C.3       1 MOL         0.1298
     18 O2          5.7978   -4.1441    7.3024 O.3       1 MOL        -0.4250
     19 C15         5.6040   -3.6553    8.6225 C.3       1 MOL         0.1166
     20 O3          0.9528   -1.7502    0.1665 O.3       1 MOL        -0.5761
     21 H2         -0.6102    0.8511    5.4446 H         1 MOL         0.0402
     22 H3         -0.8954   -0.3720    6.6974 H         1 MOL         0.0402
     23 H4          0.7574    0.0847    6.2715 H         1 MOL         0.0402
     24 H5         -1.2110   -1.3200    4.3827 H         1 MOL         0.0181
     25 H6          0.3202   -3.2694    4.5786 H         1 MOL         0.0402
     26 H7         -0.3455   -2.8533    6.1677 H         1 MOL         0.0402
     27 H8          1.3188   -2.4029    5.7505 H         1 MOL         0.0402
     28 H9          0.5344    0.2385    3.5403 H         1 MOL         0.3595
     29 H10        -0.6538   -1.3202    2.2315 H         1 MOL         0.0365
     30 H11         0.5134   -2.5655    2.7008 H         1 MOL         0.0365
     31 H12         3.1134   -0.7924    2.5481 H         1 MOL         0.0436
     32 H13         3.4153   -1.0170    0.7987 H         1 MOL         0.0436
     33 H14         3.0214   -4.8853    3.3481 H         1 MOL         0.1445
     34 H15         4.8531   -5.5418    4.8658 H         1 MOL         0.1348
     35 H16         7.0437   -2.0053    3.7460 H         1 MOL         0.1348
     36 H17         5.2103   -1.3519    2.2290 H         1 MOL         0.1445
     37 H18         7.2543   -5.3100    5.3696 H         1 MOL         0.0613
     38 H19         8.1361   -3.8551    4.9184 H         1 MOL         0.0613
     39 H20         7.8344   -4.0033    7.3761 H         1 MOL         0.0300
     40 H21         6.9927   -2.5663    6.7477 H         1 MOL         0.0300
     41 H22         4.6654   -4.0472    9.0173 H         1 MOL         0.0328
     42 H23         5.5808   -2.5645    8.6028 H         1 MOL         0.0328
     43 H24         6.4328   -3.9929    9.2463 H         1 MOL         0.0328
     44 H25         0.0320   -1.5140   -0.0211 H         1 MOL         0.3938
@<TRIPOS>BOND
     1    1    2 1
     2    2    3 1
     3    2    4 1
     4    4    5 1
     5    5    6 1
     6    6    7 1
     7    6    8 1
     8    8    9 1
     9    9   10 1
    10   10   15 ar
    11   10   11 ar
    12   11   12 ar
    13   12   13 ar
    14   13   14 ar
    15   14   15 ar
    16   13   16 1
    17   16   17 1
    18   17   18 1
    19   18   19 1
    20    6   20 1
    21    1   21 1
    22    1   22 1
    23    1   23 1
    24    2   24 1
    25    3   25 1
    26    3   26 1
    27    3   27 1
    28    4   28 1
    29    5   29 1
    30    5   30 1
    31    8   31 1
    32    8   32 1
    33   11   33 1
    34   12   34 1
    35   14   35 1
    36   15   36 1
    37   16   37 1
    38   16   38 1
    39   17   39 1
    40   17   40 1
    41   19   41 1
    42   19   42 1
    43   19   43 1
    44   20   44 1
