@<TRIPOS>MOLECULE
2-[(4-ethylanilino)methyl]-5,6-dimethyl-4~{H}-[1,2,4]triazolo[1,5-a]pyrimidin-7-one
   41    43     0     0     0
SMALL
USER_CHARGES

@<TRIPOS>ATOM
      1 C1         10.8679   -1.3676   -2.9115 C.3       1 MOL        -0.0891
      2 C2         10.2096   -2.4685   -2.0942 C.3       1 MOL        -0.0313
      3 C3          8.7750   -2.1706   -1.8160 C.ar      1 MOL        -0.1220
      4 C4          7.7886   -2.5988   -2.7044 C.ar      1 MOL        -0.0898
      5 C5          6.4469   -2.3199   -2.4443 C.ar      1 MOL        -0.1874
      6 C6          6.0916   -1.6127   -1.2957 C.ar      1 MOL         0.1493
      7 C7          7.0781   -1.1844   -0.4073 C.ar      1 MOL        -0.1874
      8 C8          8.4198   -1.4634   -0.6675 C.ar      1 MOL        -0.0898
      9 N1          4.7586   -1.3360   -1.0368 N.pl3     1 MOL        -0.7379
     10 C9          4.3037   -0.6147    0.1199 C.3       1 MOL         0.1796
     11 C10         2.8434   -0.4682    0.1366 C.2       1 MOL         0.5168
     12 N2          2.2145    0.6002   -0.4403 N.2       1 MOL        -0.6876
     13 C11         0.9486    0.3433   -0.2039 C.2       1 MOL         0.6299
     14 N3         -0.1948    0.9914   -0.4985 N.pl3     1 MOL        -0.7114
     15 C12        -1.4431    0.5006   -0.1285 C.2       1 MOL         0.1861
     16 C13        -1.5839   -0.6665    0.5498 C.2       1 MOL        -0.2619
     17 C14        -0.3401   -1.4325    0.9138 C.2       1 MOL         0.6298
     18 O1         -0.2982   -2.4863    1.5269 O.2       1 MOL        -0.5517
     19 N4          0.8375   -0.8351    0.4873 N.am      1 MOL        -0.0576
     20 N5          2.0493   -1.3726    0.7166 N.2       1 MOL        -0.4730
     21 C15        -2.8693   -1.3144    0.9690 C.3       1 MOL        -0.0414
     22 C16        -2.6012    1.3781   -0.5252 C.3       1 MOL        -0.0771
     23 H1         11.9206   -1.5956   -3.1103 H         1 MOL         0.0345
     24 H2         10.8232   -0.4170   -2.3708 H         1 MOL         0.0345
     25 H3         10.3653   -1.2336   -3.8753 H         1 MOL         0.0345
     26 H4         10.7493   -2.6010   -1.1487 H         1 MOL         0.0422
     27 H5         10.2918   -3.4242   -2.6260 H         1 MOL         0.0422
     28 H6          8.0564   -3.1508   -3.6013 H         1 MOL         0.1295
     29 H7          5.6866   -2.6579   -3.1436 H         1 MOL         0.1313
     30 H8          6.8126   -0.6333    0.4912 H         1 MOL         0.1313
     31 H9          9.1816   -1.1257    0.0299 H         1 MOL         0.1295
     32 H10         4.0643   -1.6617   -1.7000 H         1 MOL         0.4109
     33 H11         4.7901    0.3668    0.1182 H         1 MOL         0.0661
     34 H12         4.6551   -1.1503    1.0081 H         1 MOL         0.0661
     35 H13        -0.1879    1.8701   -1.0065 H         1 MOL         0.4826
     36 H14        -3.2123   -1.9836    0.1830 H         1 MOL         0.0549
     37 H15        -3.6211   -0.5487    1.1493 H         1 MOL         0.0549
     38 H16        -2.7097   -1.8798    1.8850 H         1 MOL         0.0549
     39 H17        -2.9453    1.0894   -1.5135 H         1 MOL         0.0684
     40 H18        -2.2771    2.4145   -0.5349 H         1 MOL         0.0684
     41 H19        -3.4040    1.2570    0.1958 H         1 MOL         0.0684
@<TRIPOS>BOND
     1    1    2 1
     2    2    3 1
     3    3    8 ar
     4    3    4 ar
     5    4    5 ar
     6    5    6 ar
     7    6    7 ar
     8    7    8 ar
     9    6    9 1
    10    9   10 1
    11   10   11 1
    12   11   20 2
    13   11   12 1
    14   12   13 2
    15   13   19 1
    16   13   14 1
    17   14   15 1
    18   15   16 2
    19   16   17 1
    20   17   18 2
    21   17   19 am
    22   19   20 1
    23   16   21 1
    24   15   22 1
    25    1   23 1
    26    1   24 1
    27    1   25 1
    28    2   26 1
    29    2   27 1
    30    4   28 1
    31    5   29 1
    32    7   30 1
    33    8   31 1
    34    9   32 1
    35   10   33 1
    36   10   34 1
    37   14   35 1
    38   21   36 1
    39   21   37 1
    40   21   38 1
    41   22   39 1
    42   22   40 1
    43   22   41 1
