@<TRIPOS>MOLECULE
4-amino-~{N}-(2-phenylpyrazol-3-yl)benzenesulfonamide
   36    38     0     0     0
SMALL
USER_CHARGES

@<TRIPOS>ATOM
      1 C1          1.8880   -1.0357   -0.1123 C.ar      1 MOL        -0.1326
      2 C2          0.9220   -1.7992    0.5432 C.ar      1 MOL        -0.1192
      3 C3          0.8779   -1.8207    1.9372 C.ar      1 MOL        -0.1295
      4 C4          1.7997   -1.0786    2.6757 C.ar      1 MOL         0.0200
      5 C5          2.7656   -0.3151    2.0201 C.ar      1 MOL        -0.1295
      6 C6          2.8097   -0.2936    0.6261 C.ar      1 MOL        -0.1192
      7 N1          1.7565   -1.0993    4.0577 N.pl3     1 MOL         0.1464
      8 C7          2.0903   -0.1910    4.9784 C.2       1 MOL         0.1392
      9 C8          1.8779   -0.6467    6.2933 C.2       1 MOL        -0.3199
     10 C9          1.3817   -1.9182    6.1401 C.2       1 MOL         0.3132
     11 N2          1.3295   -2.1385    4.7952 N.2       1 MOL        -0.4990
     12 N3          2.6195    1.1364    4.6859 N.pl3     1 MOL        -0.7532
     13 S1          1.5050    2.4158    4.4901 S.o2      1 MOL         1.5245
     14 O1          2.2539    3.6543    4.3861 O.2       1 MOL        -0.6498
     15 O2          0.5204    2.0822    3.4788 O.2       1 MOL        -0.6498
     16 C10         0.6820    2.4444    6.0568 C.ar      1 MOL        -0.4741
     17 C11        -0.4653    1.6764    6.2563 C.ar      1 MOL         0.0412
     18 C12        -1.1143    1.6999    7.4908 C.ar      1 MOL        -0.2496
     19 C13        -0.6161    2.4915    8.5257 C.ar      1 MOL         0.2678
     20 C14         0.5311    3.2595    8.3260 C.ar      1 MOL        -0.2496
     21 C15         1.1801    3.2359    7.0916 C.ar      1 MOL         0.0412
     22 N4         -1.2731    2.5153    9.7734 N.pl3     1 MOL        -0.8729
     23 H1          1.9207   -1.0179   -1.1977 H         1 MOL         0.1361
     24 H2          0.2037   -2.3756   -0.0326 H         1 MOL         0.1395
     25 H3          0.1193   -2.4194    2.4354 H         1 MOL         0.1517
     26 H4          3.4895    0.2685    2.5837 H         1 MOL         0.1517
     27 H5          3.5611    0.3019    0.1159 H         1 MOL         0.1395
     28 H6          2.0738   -0.0900    7.1987 H         1 MOL         0.1702
     29 H7          1.0645   -2.6801    6.8346 H         1 MOL         0.0448
     30 H8          3.4937    1.3449    5.1687 H         1 MOL         0.4591
     31 H9         -0.8620    1.0574    5.4562 H         1 MOL         0.1548
     32 H10        -2.0067    1.0964    7.6355 H         1 MOL         0.1399
     33 H11         0.9284    3.8792    9.1260 H         1 MOL         0.1399
     34 H12         2.0726    3.8388    6.9472 H         1 MOL         0.1548
     35 H13        -0.8800    3.0496   10.5217 H         1 MOL         0.4362
     36 H14        -2.0670    1.9246    9.9178 H         1 MOL         0.4362
@<TRIPOS>BOND
     1    1    6 ar
     2    1    2 ar
     3    2    3 ar
     4    3    4 ar
     5    4    5 ar
     6    5    6 ar
     7    4    7 1
     8    7   11 1
     9    7    8 1
    10    8    9 2
    11    9   10 1
    12   10   11 2
    13    8   12 1
    14   12   13 1
    15   13   14 2
    16   13   15 2
    17   13   16 1
    18   16   21 ar
    19   16   17 ar
    20   17   18 ar
    21   18   19 ar
    22   19   20 ar
    23   20   21 ar
    24   19   22 1
    25    1   23 1
    26    2   24 1
    27    3   25 1
    28    5   26 1
    29    6   27 1
    30    9   28 1
    31   10   29 1
    32   12   30 1
    33   17   31 1
    34   18   32 1
    35   20   33 1
    36   21   34 1
    37   22   35 1
    38   22   36 1
