@<TRIPOS>MOLECULE
~{N}-(2,3-dichlorophenyl)isoxazole-5-carboxamide
   22    23     0     0     0
SMALL
USER_CHARGES

@<TRIPOS>ATOM
      1 C1          1.8851   -1.0363   -0.1124 C.ar      1 MOL        -0.1124
      2 C2          2.9210   -1.6309    0.6081 C.ar      1 MOL        -0.1367
      3 C3          2.8783   -1.6520    2.0022 C.ar      1 MOL         0.0627
      4 C4          1.7997   -1.0786    2.6757 C.ar      1 MOL         0.0233
      5 C5          0.7638   -0.4841    1.9551 C.ar      1 MOL         0.0248
      6 C6          0.8066   -0.4630    0.5610 C.ar      1 MOL        -0.1193
      7 Cl1        -0.6035    0.2454    2.7235 Cl        1 MOL        -0.0635
      8 Cl2         1.7635   -1.1144    4.4119 Cl        1 MOL        -0.0467
      9 N1          3.9364   -2.2577    2.6876 N.am      1 MOL        -0.4801
     10 C7          5.0840   -2.8736    2.1540 C.2       1 MOL         0.6075
     11 O1          5.3188   -2.9646    0.9509 O.2       1 MOL        -0.5515
     12 C8          5.9972   -3.4582    3.1510 C.2       1 MOL         0.1905
     13 C9          7.1870   -4.1252    3.0263 C.2       1 MOL        -0.2726
     14 C10         7.5469   -4.4176    4.3532 C.2       1 MOL         0.2937
     15 N2          6.6489   -3.9665    5.2335 N.2       1 MOL        -0.3317
     16 O2          5.6654   -3.3572    4.4635 O.3       1 MOL        -0.1266
     17 H1          1.9185   -1.0199   -1.1979 H         1 MOL         0.1446
     18 H2          3.7558   -2.0741    0.0708 H         1 MOL         0.1461
     19 H3          0.0083   -0.0041   -0.0171 H         1 MOL         0.1547
     20 H4          3.8673   -2.2523    3.7102 H         1 MOL         0.3385
     21 H5          7.7165   -4.3652    2.1162 H         1 MOL         0.1941
     22 H6          8.4209   -4.9377    4.7168 H         1 MOL         0.0606
@<TRIPOS>BOND
     1    1    6 ar
     2    1    2 ar
     3    2    3 ar
     4    3    4 ar
     5    4    5 ar
     6    5    6 ar
     7    5    7 1
     8    4    8 1
     9    3    9 1
    10    9   10 am
    11   10   11 2
    12   10   12 1
    13   12   16 1
    14   12   13 2
    15   13   14 1
    16   14   15 2
    17   15   16 1
    18    1   17 1
    19    2   18 1
    20    6   19 1
    21    9   20 1
    22   13   21 1
    23   14   22 1
