@<TRIPOS>MOLECULE
2-(1-naphthylmethylsulfanyl)-5-(4-piperidyl)-1,3,4-oxadiazole
   42    45     0     0     0
SMALL
USER_CHARGES

@<TRIPOS>ATOM
      1 C1          7.3657    2.1953   -5.3135 C.ar      1 MOL        -0.1266
      2 C2          6.2400    1.5454   -4.8163 C.ar      1 MOL        -0.1195
      3 C3          6.2770    0.9501   -3.5551 C.ar      1 MOL        -0.1225
      4 C4          7.4433    0.9979   -2.7742 C.ar      1 MOL        -0.0165
      5 C5          8.5881    1.6588   -3.2798 C.ar      1 MOL        -0.0413
      6 C6          8.5329    2.2524   -4.5513 C.ar      1 MOL        -0.1155
      7 C7          9.7545    1.7066   -2.4989 C.ar      1 MOL        -0.1025
      8 C8          9.7916    1.1114   -1.2376 C.ar      1 MOL        -0.1338
      9 C9          8.6658    0.4615   -0.7404 C.ar      1 MOL        -0.1018
     10 C10         7.4986    0.4044   -1.5026 C.ar      1 MOL        -0.0794
     11 C11         6.3246   -0.3101   -0.9080 C.3       1 MOL         0.0101
     12 S1          5.2594    0.7979    0.0602 S.3       1 MOL        -0.1461
     13 C12         4.0272   -0.3528    0.5864 C.2       1 MOL         0.4973
     14 N1          3.0012   -0.0278    1.3378 N.2       1 MOL        -0.3816
     15 N2          2.2841   -1.1949    1.5248 N.2       1 MOL        -0.3341
     16 C13         2.9370   -2.1267    0.8705 C.2       1 MOL         0.4497
     17 O1          4.0576   -1.6706    0.2468 O.3       1 MOL        -0.3705
     18 C14         2.6212   -3.6056    0.7162 C.3       1 MOL        -0.0798
     19 C15         3.6870   -4.4997    1.3698 C.3       1 MOL        -0.0757
     20 C16         3.3667   -5.9795    1.1575 C.3       1 MOL         0.1646
     21 N3          3.2183   -6.2974   -0.2630 N.3       1 MOL        -0.8232
     22 C17         2.1527   -5.5074   -0.8806 C.3       1 MOL         0.1646
     23 C18         2.4217   -4.0077   -0.7538 C.3       1 MOL        -0.0757
     24 H1          7.3361    2.6585   -6.2954 H         1 MOL         0.1353
     25 H2          5.3317    1.5013   -5.4104 H         1 MOL         0.1347
     26 H3          5.3773    0.4519   -3.2017 H         1 MOL         0.1380
     27 H4          9.4009    2.7657   -4.9600 H         1 MOL         0.1341
     28 H5         10.6463    2.2092   -2.8674 H         1 MOL         0.1358
     29 H6         10.6999    1.1557   -0.6438 H         1 MOL         0.1370
     30 H7          8.7072    0.0017    0.2436 H         1 MOL         0.1384
     31 H8          5.7187   -0.7781   -1.6950 H         1 MOL         0.0941
     32 H9          6.6629   -1.1254   -0.2552 H         1 MOL         0.0941
     33 H10         1.6564   -3.7827    1.2499 H         1 MOL         0.0742
     34 H11         4.6750   -4.2772    0.9481 H         1 MOL         0.0637
     35 H12         3.7475   -4.2895    2.4431 H         1 MOL         0.0637
     36 H13         4.1743   -6.5905    1.5749 H         1 MOL         0.0305
     37 H14         2.4526   -6.2533    1.6981 H         1 MOL         0.0305
     38 H15         2.9925   -7.2879   -0.3580 H         1 MOL         0.3676
     39 H16         2.0808   -5.7763   -1.9402 H         1 MOL         0.0305
     40 H17         1.1883   -5.7618   -0.4247 H         1 MOL         0.0305
     41 H18         3.3121   -3.7470   -1.3393 H         1 MOL         0.0637
     42 H19         1.5849   -3.4487   -1.1863 H         1 MOL         0.0637
@<TRIPOS>BOND
     1    1    6 ar
     2    1    2 ar
     3    2    3 ar
     4    3    4 ar
     5    4   10 ar
     6    4    5 ar
     7    5    6 ar
     8    5    7 ar
     9    7    8 ar
    10    8    9 ar
    11    9   10 ar
    12   10   11 1
    13   11   12 1
    14   12   13 1
    15   13   17 1
    16   13   14 2
    17   14   15 1
    18   15   16 2
    19   16   17 1
    20   16   18 1
    21   18   23 1
    22   18   19 1
    23   19   20 1
    24   20   21 1
    25   21   22 1
    26   22   23 1
    27    1   24 1
    28    2   25 1
    29    3   26 1
    30    6   27 1
    31    7   28 1
    32    8   29 1
    33    9   30 1
    34   11   31 1
    35   11   32 1
    36   18   33 1
    37   19   34 1
    38   19   35 1
    39   20   36 1
    40   20   37 1
    41   21   38 1
    42   22   39 1
    43   22   40 1
    44   23   41 1
    45   23   42 1
