@<TRIPOS>MOLECULE
(2~{R})-~{N}-(5-chloro-2-methyl-phenyl)-2-(2-thienyl)azepane-1-carboxamide
   44    46     0     0     0
SMALL
USER_CHARGES

@<TRIPOS>ATOM
      1 C1          1.3443    1.8638   -4.4260 C.3       1 MOL        -0.0540
      2 C2          2.6127    1.2484   -3.9309 C.ar      1 MOL        -0.1321
      3 C3          3.7726    1.3930   -4.6920 C.ar      1 MOL        -0.0994
      4 C4          4.9702    0.8291   -4.2523 C.ar      1 MOL        -0.1483
      5 C5          5.0079    0.1205   -3.0514 C.ar      1 MOL         0.0376
      6 C6          3.8479   -0.0242   -2.2903 C.ar      1 MOL        -0.1363
      7 C7          2.6503    0.5397   -2.7301 C.ar      1 MOL         0.0901
      8 N1          1.4827    0.3827   -1.9423 N.am      1 MOL        -0.4745
      9 C8          1.3643   -0.2941   -0.7270 C.2       1 MOL         0.7823
     10 O1          2.0563   -1.2647   -0.4090 O.2       1 MOL        -0.6346
     11 N2          0.3442    0.2107    0.1297 N.am      1 MOL        -0.4699
     12 C9         -0.5304    1.3443   -0.2142 C.3       1 MOL         0.0860
     13 C10        -1.8246    0.8713   -0.8684 C.3       1 MOL        -0.1052
     14 C11        -2.8599    0.3577    0.1305 C.3       1 MOL        -0.0750
     15 C12        -2.3847   -0.7831    1.0296 C.3       1 MOL        -0.0754
     16 C13        -1.2875   -0.3670    2.0126 C.3       1 MOL        -0.0879
     17 C14         0.1356   -0.4700    1.4274 C.3       1 MOL         0.1859
     18 H1          0.3194   -1.5701    1.2436 H         1 MOL         0.1007
     19 C15         1.1775   -0.0525    2.4591 C.2       1 MOL        -0.1314
     20 C16         1.6955    1.2021    2.6949 C.2       1 MOL        -0.1546
     21 C17         2.6562    1.1952    3.7471 C.2       1 MOL        -0.1628
     22 C18         2.8357   -0.0641    4.2757 C.2       1 MOL        -0.1777
     23 S1          1.8485   -1.2314    3.5041 S.3       1 MOL         0.0577
     24 Cl1         6.4864   -0.5738   -2.5094 Cl        1 MOL        -0.0934
     25 H2          1.2502    2.8853   -4.0453 H         1 MOL         0.0435
     26 H3          1.3240    1.8906   -5.5205 H         1 MOL         0.0435
     27 H4          0.4748    1.2829   -4.1003 H         1 MOL         0.0435
     28 H5          3.7542    1.9443   -5.6286 H         1 MOL         0.1356
     29 H6          5.8664    0.9505   -4.8553 H         1 MOL         0.1479
     30 H7          3.8751   -0.5760   -1.3529 H         1 MOL         0.1822
     31 H8          0.6031    0.8305   -2.3216 H         1 MOL         0.3201
     32 H9         -0.7209    1.9412    0.6846 H         1 MOL         0.0582
     33 H10         0.0004    2.0152   -0.8963 H         1 MOL         0.0582
     34 H11        -2.2716    1.7154   -1.4077 H         1 MOL         0.0411
     35 H12        -1.6178    0.0941   -1.6137 H         1 MOL         0.0411
     36 H13        -3.2038    1.1918    0.7551 H         1 MOL         0.0442
     37 H14        -3.7376    0.0152   -0.4316 H         1 MOL         0.0442
     38 H15        -3.2501   -1.1217    1.6133 H         1 MOL         0.0417
     39 H16        -2.0616   -1.6393    0.4259 H         1 MOL         0.0417
     40 H17        -1.4917    0.6385    2.4028 H         1 MOL         0.0551
     41 H18        -1.3383   -1.0335    2.8849 H         1 MOL         0.0551
     42 H19         1.4037    2.0853    2.1408 H         1 MOL         0.1521
     43 H20         3.1894    2.0688    4.0985 H         1 MOL         0.1520
     44 H21         3.4989   -0.3545    5.0782 H         1 MOL         0.1714
@<TRIPOS>BOND
     1    1    2 1
     2    2    7 ar
     3    2    3 ar
     4    3    4 ar
     5    4    5 ar
     6    5    6 ar
     7    6    7 ar
     8    7    8 1
     9    8    9 am
    10    9   10 2
    11    9   11 am
    12   11   17 1
    13   11   12 1
    14   12   13 1
    15   13   14 1
    16   14   15 1
    17   15   16 1
    18   16   17 1
    19   17   18 1
    20   17   19 1
    21   19   23 1
    22   19   20 2
    23   20   21 1
    24   21   22 2
    25   22   23 1
    26    5   24 1
    27    1   25 1
    28    1   26 1
    29    1   27 1
    30    3   28 1
    31    4   29 1
    32    6   30 1
    33    8   31 1
    34   12   32 1
    35   12   33 1
    36   13   34 1
    37   13   35 1
    38   14   36 1
    39   14   37 1
    40   15   38 1
    41   15   39 1
    42   16   40 1
    43   16   41 1
    44   20   42 1
    45   21   43 1
    46   22   44 1
