@<TRIPOS>MOLECULE
~{N}-(3,4-dimethylphenyl)-6-methyl-thieno[2,3-b]quinoline-2-carboxamide
   43    46     0     0     0
SMALL
USER_CHARGES

@<TRIPOS>ATOM
      1 C1          2.1235    0.4144    1.6263 C.3       1 MOL        -0.0582
      2 C2          1.5020   -0.8882    1.2546 C.ar      1 MOL        -0.0733
      3 C3          0.4074   -0.9231    0.4015 C.ar      1 MOL        -0.1100
      4 C4         -0.1712   -2.1479    0.0587 C.ar      1 MOL        -0.1700
      5 C5          0.3181   -3.3543    0.5496 C.ar      1 MOL         0.4189
      6 C6          1.4295   -3.3094    1.4153 C.ar      1 MOL        -0.1528
      7 C7          2.0129   -2.0789    1.7615 C.ar      1 MOL        -0.1114
      8 C8          1.9343   -4.5161    1.9187 C.ar      1 MOL        -0.0214
      9 C9          1.3191   -5.7247    1.5454 C.ar      1 MOL        -0.2144
     10 C10         1.5855   -7.0915    1.8764 C.2       1 MOL        -0.0324
     11 C11         0.7085   -7.9623    1.2676 C.2       1 MOL        -0.1598
     12 S1         -0.4374   -7.1435    0.2978 S.3       1 MOL        -0.0907
     13 C12         0.2344   -5.6255    0.6876 C.ar      1 MOL         0.4557
     14 N1         -0.2844   -4.4915    0.1801 N.ar      1 MOL        -0.6341
     15 C13         0.6561   -9.3856    1.3547 C.2       1 MOL         0.7095
     16 O1         -0.1988  -10.0717    0.7466 O.2       1 MOL        -0.5774
     17 N2          1.6584   -9.9981    2.1442 N.am      1 MOL        -0.4686
     18 C14         1.8921  -11.3738    2.3948 C.ar      1 MOL         0.0701
     19 C15         1.0627  -12.3375    1.8211 C.ar      1 MOL        -0.1845
     20 C16         1.2922  -13.6911    2.0674 C.ar      1 MOL        -0.1020
     21 C17         2.3510  -14.0810    2.8874 C.ar      1 MOL        -0.1022
     22 C18         3.1804  -13.1173    3.4612 C.ar      1 MOL        -0.0458
     23 C19         2.9509  -11.7637    3.2149 C.ar      1 MOL        -0.1556
     24 C20         4.3198  -13.5112    4.3427 C.3       1 MOL        -0.0554
     25 C21         2.5769  -15.5361    3.1367 C.3       1 MOL        -0.0479
     26 H1          2.9128    0.6698    0.9127 H         1 MOL         0.0481
     27 H2          1.3777    1.2161    1.6313 H         1 MOL         0.0481
     28 H3          2.5561    0.3684    2.6314 H         1 MOL         0.0481
     29 H4         -0.0071   -0.0047   -0.0048 H         1 MOL         0.1394
     30 H5         -1.0289   -2.1449   -0.6121 H         1 MOL         0.1550
     31 H6          2.8709   -2.0506    2.4306 H         1 MOL         0.1373
     32 H7          2.7904   -4.5282    2.5889 H         1 MOL         0.1482
     33 H8          2.3850   -7.4143    2.5322 H         1 MOL         0.1791
     34 H9          2.3313   -9.3727    2.5806 H         1 MOL         0.3151
     35 H10         0.2346  -12.0452    1.1804 H         1 MOL         0.1296
     36 H11         0.6403  -14.4342    1.6157 H         1 MOL         0.1311
     37 H12         3.5983  -11.0131    3.6632 H         1 MOL         0.1691
     38 H13         5.2285  -13.6558    3.7470 H         1 MOL         0.0463
     39 H14         4.5176  -12.7440    5.1014 H         1 MOL         0.0463
     40 H15         4.1018  -14.4426    4.8798 H         1 MOL         0.0463
     41 H16         3.2531  -15.9507    2.3801 H         1 MOL         0.0422
     42 H17         3.0156  -15.7051    4.1279 H         1 MOL         0.0422
     43 H18         1.6332  -16.0947    3.1059 H         1 MOL         0.0422
@<TRIPOS>BOND
     1    1    2 1
     2    2    7 ar
     3    2    3 ar
     4    3    4 ar
     5    4    5 ar
     6    5   14 ar
     7    5    6 ar
     8    6    7 ar
     9    6    8 ar
    10    8    9 ar
    11    9   13 ar
    12    9   10 1
    13   10   11 2
    14   11   12 1
    15   12   13 1
    16   13   14 ar
    17   11   15 1
    18   15   16 2
    19   15   17 am
    20   17   18 1
    21   18   23 ar
    22   18   19 ar
    23   19   20 ar
    24   20   21 ar
    25   21   22 ar
    26   22   23 ar
    27   22   24 1
    28   21   25 1
    29    1   26 1
    30    1   27 1
    31    1   28 1
    32    3   29 1
    33    4   30 1
    34    7   31 1
    35    8   32 1
    36   10   33 1
    37   17   34 1
    38   19   35 1
    39   20   36 1
    40   23   37 1
    41   24   38 1
    42   24   39 1
    43   24   40 1
    44   25   41 1
    45   25   42 1
    46   25   43 1
