@<TRIPOS>MOLECULE
2-[(~{E})-2-(4-bromophenyl)vinyl]-3~{H}-quinazolin-4-one
   31    33     0     0     0
SMALL
USER_CHARGES

@<TRIPOS>ATOM
      1 C1         -1.1999    0.5252   -1.7087 C.ar      1 MOL        -0.1541
      2 C2         -0.7542   -0.3352   -0.7062 C.ar      1 MOL        -0.0953
      3 C3         -1.2745   -1.6272   -0.6075 C.ar      1 MOL        -0.1217
      4 C4         -2.2456   -2.0727   -1.5102 C.ar      1 MOL         0.1823
      5 C5         -2.6854   -1.1954   -2.5153 C.ar      1 MOL        -0.1902
      6 C6         -2.1673    0.0988   -2.6174 C.ar      1 MOL        -0.0583
      7 C7         -3.7131   -1.6673   -3.4721 C.2       1 MOL         0.7082
      8 O1         -4.1330   -0.9448   -4.3684 O.2       1 MOL        -0.6250
      9 N1         -4.1389   -2.9677   -3.2579 N.am      1 MOL        -0.4942
     10 C8         -3.6419   -3.7483   -2.2387 C.2       1 MOL         0.5398
     11 N2         -2.7474   -3.3827   -1.3811 N.2       1 MOL        -0.6198
     12 C9         -4.2361   -5.0965   -2.1954 C.2       1 MOL        -0.2497
     13 C10        -3.5606   -6.1388   -1.7447 C.2       1 MOL        -0.0331
     14 C11        -4.1077   -7.5057   -1.6908 C.ar      1 MOL        -0.0682
     15 C12        -5.4878   -7.7063   -1.7220 C.ar      1 MOL        -0.1096
     16 C13        -6.0057   -9.0004   -1.6710 C.ar      1 MOL        -0.1059
     17 C14        -5.1437  -10.0939   -1.5887 C.ar      1 MOL        -0.0174
     18 C15        -3.7637   -9.8933   -1.5574 C.ar      1 MOL        -0.1059
     19 C16        -3.2457   -8.5992   -1.6084 C.ar      1 MOL        -0.1096
     20 Br1        -5.8455  -11.8473   -1.5195 Br        1 MOL        -0.0789
     21 H1         -0.7930    1.5300   -1.7814 H         1 MOL         0.1390
     22 H2         -0.0003    0.0001    0.0005 H         1 MOL         0.1364
     23 H3         -0.9154   -2.2854    0.1800 H         1 MOL         0.1539
     24 H4         -2.5027    0.7828   -3.3919 H         1 MOL         0.1601
     25 H5         -4.8442   -3.3601   -3.8757 H         1 MOL         0.3370
     26 H6         -5.2380   -5.1334   -2.5696 H         1 MOL         0.1403
     27 H7         -2.5334   -6.0320   -1.4007 H         1 MOL         0.1557
     28 H8         -6.1723   -6.8638   -1.7858 H         1 MOL         0.1419
     29 H9         -7.0835   -9.1395   -1.6963 H         1 MOL         0.1503
     30 H10        -3.0783  -10.7346   -1.4934 H         1 MOL         0.1503
     31 H11        -2.1677   -8.4587   -1.5833 H         1 MOL         0.1419
@<TRIPOS>BOND
     1    1    6 ar
     2    1    2 ar
     3    2    3 ar
     4    3    4 ar
     5    4   11 1
     6    4    5 ar
     7    5    6 ar
     8    5    7 1
     9    7    8 2
    10    7    9 am
    11    9   10 1
    12   10   11 2
    13   10   12 1
    14   12   13 2
    15   13   14 1
    16   14   19 ar
    17   14   15 ar
    18   15   16 ar
    19   16   17 ar
    20   17   18 ar
    21   18   19 ar
    22   17   20 1
    23    1   21 1
    24    2   22 1
    25    3   23 1
    26    6   24 1
    27    9   25 1
    28   12   26 1
    29   13   27 1
    30   15   28 1
    31   16   29 1
    32   18   30 1
    33   19   31 1
