@<TRIPOS>MOLECULE
ethyl 3-amino-4,5,6-trimethyl-thieno[2,3-b]pyridine-2-carboxylate
   34    35     0     0     0
SMALL
USER_CHARGES

@<TRIPOS>ATOM
      1 C1         -3.5384    6.2067   -0.4826 C.3       1 MOL        -0.1160
      2 C2         -2.0612    6.5301   -0.5542 C.3       1 MOL         0.1462
      3 O1         -1.3124    5.3134   -0.4603 O.3       1 MOL        -0.4748
      4 C3          0.0372    5.4482   -0.5105 C.2       1 MOL         0.6884
      5 O2          0.6565    6.4944   -0.6265 O.2       1 MOL        -0.4973
      6 C4          0.6691    4.1706   -0.4090 C.2       1 MOL        -0.3160
      7 C5          0.1025    2.9220   -0.2763 C.2       1 MOL         0.2656
      8 C6          1.0807    1.8788   -0.2062 C.ar      1 MOL        -0.2379
      9 C7          0.9716    0.4797   -0.0722 C.ar      1 MOL         0.0208
     10 C8          2.1349   -0.2824   -0.0332 C.ar      1 MOL        -0.2097
     11 C9          3.3507    0.3712   -0.1283 C.ar      1 MOL         0.4503
     12 N1          3.5216    1.7043   -0.2578 N.ar      1 MOL        -0.6580
     13 C10         2.3668    2.4019   -0.2910 C.ar      1 MOL         0.4267
     14 S1          2.3769    4.0997   -0.4501 S.3       1 MOL         0.0448
     15 C11         4.6192   -0.4222   -0.0894 C.3       1 MOL        -0.1544
     16 C12         2.0720   -1.7678    0.1078 C.3       1 MOL        -0.0495
     17 C13        -0.3528   -0.2138    0.0297 C.3       1 MOL        -0.0704
     18 N2         -1.2374    2.7203   -0.2197 N.pl3     1 MOL        -0.8383
     19 H1         -4.1408    7.1168   -0.5517 H         1 MOL         0.0458
     20 H2         -3.8253    5.5303   -1.2944 H         1 MOL         0.0458
     21 H3         -3.7764    5.6960    0.4564 H         1 MOL         0.0458
     22 H4         -1.7716    7.1868    0.2715 H         1 MOL         0.0545
     23 H5         -1.8208    7.0196   -1.5027 H         1 MOL         0.0545
     24 H6          4.9099   -0.7178   -1.1030 H         1 MOL         0.0578
     25 H7          5.4340    0.1604    0.3549 H         1 MOL         0.0578
     26 H8          4.4996   -1.3251    0.5202 H         1 MOL         0.0578
     27 H9          2.0274   -2.2416   -0.8797 H         1 MOL         0.0462
     28 H10         2.9498   -2.1529    0.6411 H         1 MOL         0.0462
     29 H11         1.1893   -2.0743    0.6828 H         1 MOL         0.0462
     30 H12        -0.7127   -0.4831   -0.9682 H         1 MOL         0.0526
     31 H13        -0.2728   -1.1236    0.6342 H         1 MOL         0.0526
     32 H14        -1.0959    0.4304    0.5118 H         1 MOL         0.0526
     33 H15        -1.6420    1.7772   -0.1681 H         1 MOL         0.4316
     34 H16        -1.9065    3.4935   -0.3211 H         1 MOL         0.4316
@<TRIPOS>BOND
     1    1    2 1
     2    2    3 1
     3    3    4 1
     4    4    5 2
     5    4    6 1
     6    6   14 1
     7    6    7 2
     8    7    8 1
     9    8   13 ar
    10    8    9 ar
    11    9   10 ar
    12   10   11 ar
    13   11   12 ar
    14   12   13 ar
    15   13   14 1
    16   11   15 1
    17   10   16 1
    18    9   17 1
    19    7   18 1
    20    1   19 1
    21    1   20 1
    22    1   21 1
    23    2   22 1
    24    2   23 1
    25   15   24 1
    26   15   25 1
    27   15   26 1
    28   16   27 1
    29   16   28 1
    30   16   29 1
    31   17   30 1
    32   17   31 1
    33   17   32 1
    34   18   33 1
    35   18   34 1
