@<TRIPOS>MOLECULE
3-phenyl-1,2,4-thiadiazol-5-amine
   19    20     0     0     0
SMALL
USER_CHARGES

@<TRIPOS>ATOM
      1 C1          1.8851   -1.0363   -0.1124 C.ar      1 MOL        -0.1132
      2 C2          2.9210   -1.6309    0.6081 C.ar      1 MOL        -0.1442
      3 C3          2.8783   -1.6520    2.0022 C.ar      1 MOL        -0.0877
      4 C4          1.7997   -1.0786    2.6757 C.ar      1 MOL        -0.1274
      5 C5          0.7638   -0.4841    1.9551 C.ar      1 MOL        -0.0877
      6 C6          0.8066   -0.4630    0.5610 C.ar      1 MOL        -0.1442
      7 C7          1.7561   -1.1004    4.1109 C.2       1 MOL         0.6677
      8 N1          2.5333   -2.0231    4.7902 N.2       1 MOL        -0.7343
      9 C8          2.3211   -1.8457    6.0758 C.2       1 MOL         0.6424
     10 S1          1.2039   -0.5832    6.3962 S.3       1 MOL         0.0367
     11 N2          0.9791   -0.2433    4.7730 N.2       1 MOL        -0.5471
     12 N3          2.8915   -2.5497    7.0852 N.pl3     1 MOL        -0.9011
     13 H1          1.9181   -1.0209   -1.1979 H         1 MOL         0.1315
     14 H2          3.7600   -2.0783    0.0835 H         1 MOL         0.1346
     15 H3          3.6937   -2.1194    2.5494 H         1 MOL         0.1515
     16 H4         -0.0838   -0.0329    2.4656 H         1 MOL         0.1515
     17 H5         -0.0007   -0.0012    0.0001 H         1 MOL         0.1346
     18 H6          2.7135   -2.3237    8.0715 H         1 MOL         0.4182
     19 H7          3.5970   -3.2753    6.9083 H         1 MOL         0.4182
@<TRIPOS>BOND
     1    1    6 ar
     2    1    2 ar
     3    2    3 ar
     4    3    4 ar
     5    4    5 ar
     6    5    6 ar
     7    4    7 1
     8    7   11 2
     9    7    8 1
    10    8    9 2
    11    9   10 1
    12   10   11 1
    13    9   12 1
    14    1   13 1
    15    2   14 1
    16    3   15 1
    17    5   16 1
    18    6   17 1
    19   12   18 1
    20   12   19 1
