@<TRIPOS>MOLECULE
2-(2-fluorophenyl)-3,1-benzoxazin-4-one
   26    28     0     0     0
SMALL
USER_CHARGES

@<TRIPOS>ATOM
      1 C1          1.9478   -0.9176   -0.0211 C.ar      1 MOL        -0.1498
      2 C2          0.8567   -0.2783   -0.6068 C.ar      1 MOL        -0.0895
      3 C3          0.8643    0.0047   -1.9736 C.ar      1 MOL        -0.1114
      4 C4          1.9628   -0.3496   -2.7636 C.ar      1 MOL         0.1847
      5 C5          3.0468   -0.9875   -2.1689 C.ar      1 MOL        -0.2086
      6 C6          3.0474   -1.2747   -0.8003 C.ar      1 MOL        -0.0519
      7 C7          4.1958   -1.3551   -3.0105 C.2       1 MOL         0.7361
      8 O1          5.1782   -1.9170   -2.5442 O.2       1 MOL        -0.5601
      9 O2          4.1008   -1.0343   -4.3286 O.3       1 MOL        -0.4520
     10 C8          2.9950   -0.4107   -4.8111 C.2       1 MOL         0.6920
     11 N1          1.9552   -0.0595   -4.1280 N.2       1 MOL        -0.6096
     12 C9          3.1227   -0.1619   -6.2680 C.ar      1 MOL        -0.1814
     13 C10         3.8768   -1.0306   -7.0569 C.ar      1 MOL        -0.0561
     14 C11         3.9994   -0.7997   -8.4271 C.ar      1 MOL        -0.1576
     15 C12         3.3681    0.3000   -9.0083 C.ar      1 MOL        -0.0774
     16 C13         2.6140    1.1687   -8.2193 C.ar      1 MOL        -0.1836
     17 C14         2.4914    0.9378   -6.8492 C.ar      1 MOL         0.1845
     18 F1          1.7638    1.7795   -6.1009 F         1 MOL        -0.1160
     19 H1          1.9415   -1.1373    1.0425 H         1 MOL         0.1416
     20 H2         -0.0003   -0.0009    0.0001 H         1 MOL         0.1415
     21 H3          0.0065    0.5028   -2.4188 H         1 MOL         0.1611
     22 H4          3.8898   -1.7718   -0.3277 H         1 MOL         0.1596
     23 H5          4.3732   -1.8909   -6.6149 H         1 MOL         0.1621
     24 H6          4.5865   -1.4760   -9.0415 H         1 MOL         0.1446
     25 H7          3.4636    0.4799  -10.0750 H         1 MOL         0.1426
     26 H8          2.1224    2.0249   -8.6716 H         1 MOL         0.1548
@<TRIPOS>BOND
     1    1    6 ar
     2    1    2 ar
     3    2    3 ar
     4    3    4 ar
     5    4   11 1
     6    4    5 ar
     7    5    6 ar
     8    5    7 1
     9    7    8 2
    10    7    9 1
    11    9   10 1
    12   10   11 2
    13   10   12 1
    14   12   17 ar
    15   12   13 ar
    16   13   14 ar
    17   14   15 ar
    18   15   16 ar
    19   16   17 ar
    20   17   18 1
    21    1   19 1
    22    2   20 1
    23    3   21 1
    24    6   22 1
    25   13   23 1
    26   14   24 1
    27   15   25 1
    28   16   26 1
