@<TRIPOS>MOLECULE
9~{H}-pyrido[3,4-b]indole-3-carboxylic acid
   24    26     0     0     0
SMALL
USER_CHARGES

@<TRIPOS>ATOM
      1 C1          1.2679    0.3245    1.7040 C.ar      1 MOL        -0.1569
      2 C2          0.1216   -0.1485    1.0699 C.ar      1 MOL        -0.0936
      3 C3         -0.8762   -0.8126    1.7887 C.ar      1 MOL        -0.1560
      4 C4         -0.6813   -0.9825    3.1643 C.ar      1 MOL         0.1230
      5 C5          0.4556   -0.5199    3.8281 C.ar      1 MOL        -0.0818
      6 C6          1.4489    0.1467    3.0803 C.ar      1 MOL        -0.0672
      7 C7          0.3140   -0.8659    5.2094 C.ar      1 MOL        -0.0734
      8 C8          1.1054   -0.6773    6.3534 C.ar      1 MOL        -0.1176
      9 C9          0.5957   -1.1780    7.5438 C.ar      1 MOL         0.3228
     10 N1         -0.5863   -1.8218    7.6733 N.ar      1 MOL        -0.5881
     11 C10        -1.3520   -2.0056    6.5731 C.ar      1 MOL         0.3647
     12 C11        -0.9043   -1.5300    5.3474 C.ar      1 MOL         0.0319
     13 N2         -1.4838   -1.5871    4.1033 N.pl3     1 MOL        -0.5897
     14 C12         1.3563   -1.0222    8.7725 C.2       1 MOL         0.5509
     15 O1          2.4560   -0.4665    8.8693 O.2       1 MOL        -0.5204
     16 O2          0.7234   -1.5635    9.8497 O.3       1 MOL        -0.6192
     17 H1          2.0313    0.8380    1.1254 H         1 MOL         0.1377
     18 H2         -0.0001    0.0003    0.0000 H         1 MOL         0.1357
     19 H3         -1.7687   -1.1820    1.2950 H         1 MOL         0.1403
     20 H4          2.3489    0.5214    3.5596 H         1 MOL         0.1418
     21 H5          2.0620   -0.1682    6.3063 H         1 MOL         0.1698
     22 H6         -2.2926   -2.5239    6.7050 H         1 MOL         0.0331
     23 H7         -2.3775   -2.0149    3.9044 H         1 MOL         0.4650
     24 H8         -0.1402   -1.9709    9.6250 H         1 MOL         0.4473
@<TRIPOS>BOND
     1    1    6 ar
     2    1    2 ar
     3    2    3 ar
     4    3    4 ar
     5    4   13 1
     6    4    5 ar
     7    5    6 ar
     8    5    7 1
     9    7   12 ar
    10    7    8 ar
    11    8    9 ar
    12    9   10 ar
    13   10   11 ar
    14   11   12 ar
    15   12   13 1
    16    9   14 1
    17   14   15 2
    18   14   16 1
    19    1   17 1
    20    2   18 1
    21    3   19 1
    22    6   20 1
    23    8   21 1
    24   11   22 1
    25   13   23 1
    26   16   24 1
