@<TRIPOS>MOLECULE
8-oxo-9-phenyl-2-(p-tolyl)-7~{H}-purine-6-carboxamide
   41    44     0     0     0
SMALL
USER_CHARGES

@<TRIPOS>ATOM
      1 C1         -3.5851    1.4770    2.5442 C.3       1 MOL        -0.0606
      2 C2         -2.4320    1.0012    1.7267 C.ar      1 MOL        -0.0594
      3 C3         -2.3576   -0.3361    1.3370 C.ar      1 MOL        -0.1374
      4 C4         -1.2793   -0.7806    0.5719 C.ar      1 MOL        -0.0865
      5 C5         -0.2753    0.1122    0.1967 C.ar      1 MOL        -0.1439
      6 C6         -0.3498    1.4495    0.5865 C.ar      1 MOL        -0.0865
      7 C7         -1.4281    1.8939    1.3516 C.ar      1 MOL        -0.1374
      8 C8          0.8383   -0.3472   -0.5927 C.ar      1 MOL         0.7023
      9 N1          2.0135    0.3059   -0.4041 N.ar      1 MOL        -0.6576
     10 C9          3.0472   -0.1282   -1.1518 C.ar      1 MOL         0.3911
     11 C10         2.8862   -1.1651   -2.0264 C.ar      1 MOL        -0.2056
     12 C11         1.6539   -1.7792   -2.1377 C.ar      1 MOL         0.5137
     13 N2          0.5888   -1.3780   -1.4339 N.ar      1 MOL        -0.6679
     14 N3          1.7753   -2.7965   -3.1221 N.am      1 MOL        -0.3486
     15 C12         3.1295   -2.7830   -3.6158 C.2       1 MOL         0.8033
     16 O1          3.6624   -3.5007   -4.4508 O.2       1 MOL        -0.5939
     17 N4          3.7894   -1.7478   -2.8996 N.am      1 MOL        -0.4269
     18 C13         0.7203   -3.6535   -3.5383 C.ar      1 MOL         0.0602
     19 C14         0.6999   -4.1515   -4.8412 C.ar      1 MOL        -0.1290
     20 C15        -0.3344   -4.9935   -5.2498 C.ar      1 MOL        -0.1174
     21 C16        -1.3482   -5.3375   -4.3557 C.ar      1 MOL        -0.1330
     22 C17        -1.3278   -4.8394   -3.0529 C.ar      1 MOL        -0.1174
     23 C18        -0.2935   -3.9974   -2.6443 C.ar      1 MOL        -0.1290
     24 C19         4.3162    0.5488   -0.9603 C.2       1 MOL         0.5777
     25 O2          5.3279    0.2338   -1.6145 O.2       1 MOL        -0.5858
     26 N5          4.3678    1.5837   -0.0287 N.am      1 MOL        -0.6575
     27 H1         -4.3928    1.8179    1.8894 H         1 MOL         0.0468
     28 H2         -3.9649    0.6766    3.1877 H         1 MOL         0.0468
     29 H3         -3.2863    2.3035    3.1977 H         1 MOL         0.0468
     30 H4         -3.1351   -1.0385    1.6255 H         1 MOL         0.1373
     31 H5         -1.2351   -1.8256    0.2747 H         1 MOL         0.1429
     32 H6          0.4242    2.1583    0.3018 H         1 MOL         0.1429
     33 H7         -1.4774    2.9376    1.6509 H         1 MOL         0.1373
     34 H8          4.7602   -1.4787   -3.0006 H         1 MOL         0.3653
     35 H9          1.4854   -3.8909   -5.5462 H         1 MOL         0.1567
     36 H10        -0.3506   -5.3818   -6.2640 H         1 MOL         0.1380
     37 H11        -2.1538   -5.9927   -4.6741 H         1 MOL         0.1359
     38 H12        -2.1173   -5.1079   -2.3571 H         1 MOL         0.1380
     39 H13        -0.2878   -3.6164   -1.6261 H         1 MOL         0.1567
     40 H14         3.5548    1.8841    0.4980 H         1 MOL         0.3210
     41 H15         5.2217    2.1062    0.1384 H         1 MOL         0.3210
@<TRIPOS>BOND
     1    1    2 1
     2    2    7 ar
     3    2    3 ar
     4    3    4 ar
     5    4    5 ar
     6    5    6 ar
     7    6    7 ar
     8    5    8 1
     9    8   13 ar
    10    8    9 ar
    11    9   10 ar
    12   10   11 ar
    13   11   17 1
    14   11   12 ar
    15   12   13 ar
    16   12   14 1
    17   14   15 am
    18   15   16 2
    19   15   17 am
    20   14   18 1
    21   18   23 ar
    22   18   19 ar
    23   19   20 ar
    24   20   21 ar
    25   21   22 ar
    26   22   23 ar
    27   10   24 1
    28   24   25 2
    29   24   26 am
    30    1   27 1
    31    1   28 1
    32    1   29 1
    33    3   30 1
    34    4   31 1
    35    6   32 1
    36    7   33 1
    37   17   34 1
    38   19   35 1
    39   20   36 1
    40   21   37 1
    41   22   38 1
    42   23   39 1
    43   26   40 1
    44   26   41 1
