@<TRIPOS>MOLECULE
[3-[(2~{S})-pyrrolidin-2-yl]-1~{H}-pyrazol-5-yl]methanol
   25    26     0     0     0
SMALL
USER_CHARGES

@<TRIPOS>ATOM
      1 C1         -1.5915   -2.4047   -2.6317 C.2       1 MOL        -0.2703
      2 C2         -2.1105   -3.4177   -3.4601 C.2       1 MOL        -0.1235
      3 N1         -1.1730   -3.9981   -4.2140 N.pl3     1 MOL         0.0001
      4 N2         -0.0514   -3.3475   -3.8605 N.2       1 MOL        -0.4849
      5 C3         -0.2479   -2.3836   -2.9158 C.2       1 MOL         0.3044
      6 C4          0.8845   -1.5375   -2.3820 C.3       1 MOL         0.1539
      7 H1          1.8137   -1.8618   -2.8948 H         1 MOL         0.0316
      8 C5          1.0846   -1.6520   -0.8633 C.3       1 MOL        -0.0815
      9 C6          1.0161   -0.2215   -0.3490 C.3       1 MOL        -0.0860
     10 C7          1.3488    0.6128   -1.5676 C.3       1 MOL         0.1632
     11 N3          0.6676   -0.1049   -2.6405 N.3       1 MOL        -0.8146
     12 C8         -3.5170   -3.8684   -3.5619 C.3       1 MOL         0.1999
     13 O1         -4.1956   -3.1122   -4.5624 O.3       1 MOL        -0.5946
     14 H2         -2.1607   -1.8012   -1.9395 H         1 MOL         0.1640
     15 H3         -1.1703   -4.7397   -4.9080 H         1 MOL         0.3235
     16 H4          0.3437   -2.2847   -0.3627 H         1 MOL         0.0530
     17 H5          2.0782   -2.0673   -0.6550 H         1 MOL         0.0530
     18 H6         -0.0001    0.0007   -0.0002 H         1 MOL         0.0498
     19 H7          1.7066   -0.0457    0.4811 H         1 MOL         0.0498
     20 H8          0.9933    1.6431   -1.4756 H         1 MOL         0.0322
     21 H9          2.4286    0.6333   -1.7527 H         1 MOL         0.0322
     22 H10         1.1175    0.1528   -3.5207 H         1 MOL         0.3644
     23 H11        -3.5891   -4.9355   -3.8304 H         1 MOL         0.0383
     24 H12        -4.0558   -3.7416   -2.6084 H         1 MOL         0.0383
     25 H13        -5.1060   -3.4446   -4.5886 H         1 MOL         0.4036
@<TRIPOS>BOND
     1    1    5 1
     2    1    2 2
     3    2    3 1
     4    3    4 1
     5    4    5 2
     6    5    6 1
     7    6    7 1
     8    6   11 1
     9    6    8 1
    10    8    9 1
    11    9   10 1
    12   10   11 1
    13    2   12 1
    14   12   13 1
    15    1   14 1
    16    3   15 1
    17    8   16 1
    18    8   17 1
    19    9   18 1
    20    9   19 1
    21   10   20 1
    22   10   21 1
    23   11   22 1
    24   12   23 1
    25   12   24 1
    26   13   25 1
