@<TRIPOS>MOLECULE
2,5-diethoxy-4-morpholino-aniline
   41    42     0     0     0
SMALL
USER_CHARGES

@<TRIPOS>ATOM
      1 C1          2.2227   -4.5433   -2.0055 C.3       1 MOL        -0.1016
      2 C2          2.8318   -4.0406   -0.7140 C.3       1 MOL         0.1359
      3 O1          2.3305   -2.7372   -0.4417 O.3       1 MOL        -0.3453
      4 C3          2.2286   -2.3806    0.8697 C.ar      1 MOL         0.1302
      5 C4          3.3779   -2.3639    1.6600 C.ar      1 MOL        -0.2351
      6 C5          3.2948   -2.0008    3.0042 C.ar      1 MOL         0.1986
      7 C6          2.0624   -1.6544    3.5582 C.ar      1 MOL         0.0145
      8 C7          0.9131   -1.6712    2.7679 C.ar      1 MOL        -0.1435
      9 C8          0.9962   -2.0343    1.4237 C.ar      1 MOL         0.0842
     10 N1         -0.1641   -2.0466    0.6428 N.pl3     1 MOL        -0.6479
     11 C9         -1.4612   -2.3351    1.2644 C.3       1 MOL         0.1616
     12 C10        -2.4565   -2.7779    0.1976 C.3       1 MOL         0.1262
     13 O2         -2.5361   -1.8074   -0.8457 O.3       1 MOL        -0.4199
     14 C11        -1.2776   -1.6759   -1.5063 C.3       1 MOL         0.1262
     15 C12        -0.2163   -1.1705   -0.5356 C.3       1 MOL         0.1616
     16 O3          1.9604   -1.2961    4.8693 O.3       1 MOL        -0.3473
     17 C13         1.1140   -2.0936    5.6944 C.3       1 MOL         0.1267
     18 C14         1.6502   -2.0707    7.1078 C.3       1 MOL        -0.1029
     19 N2          4.4661   -1.9891    3.7925 N.pl3     1 MOL        -0.8869
     20 H1          2.5880   -5.5459   -2.2449 H         1 MOL         0.0460
     21 H2          1.1307   -4.5733   -1.9314 H         1 MOL         0.0460
     22 H3          2.4671   -3.8710   -2.8347 H         1 MOL         0.0460
     23 H4          3.9214   -3.9887   -0.7982 H         1 MOL         0.0348
     24 H5          2.5676   -4.7007    0.1176 H         1 MOL         0.0348
     25 H6          4.3366   -2.6350    1.2238 H         1 MOL         0.1406
     26 H7         -0.0454   -1.3999    3.2042 H         1 MOL         0.1421
     27 H8         -1.3633   -3.1221    2.0215 H         1 MOL         0.0471
     28 H9         -1.8330   -1.4282    1.7583 H         1 MOL         0.0471
     29 H10        -2.1787   -3.7493   -0.2293 H         1 MOL         0.0525
     30 H11        -3.4533   -2.8830    0.6374 H         1 MOL         0.0525
     31 H12        -0.9931   -2.6408   -1.9432 H         1 MOL         0.0525
     32 H13        -1.4011   -0.9636   -2.3282 H         1 MOL         0.0525
     33 H14         0.7564   -1.1407   -1.0405 H         1 MOL         0.0471
     34 H15        -0.4689   -0.1519   -0.2141 H         1 MOL         0.0471
     35 H16         0.1039   -1.6801    5.6562 H         1 MOL         0.0370
     36 H17         1.1048   -3.1117    5.2994 H         1 MOL         0.0370
     37 H18         1.0223   -2.6745    7.7689 H         1 MOL         0.0448
     38 H19         2.6736   -2.4584    7.1409 H         1 MOL         0.0448
     39 H20         1.6854   -1.0461    7.4927 H         1 MOL         0.0448
     40 H21         5.3289   -2.2870    3.3860 H         1 MOL         0.4337
     41 H22         4.3949   -1.7742    4.7657 H         1 MOL         0.4337
@<TRIPOS>BOND
     1    1    2 1
     2    2    3 1
     3    3    4 1
     4    4    9 ar
     5    4    5 ar
     6    5    6 ar
     7    6    7 ar
     8    7    8 ar
     9    8    9 ar
    10    9   10 1
    11   10   15 1
    12   10   11 1
    13   11   12 1
    14   12   13 1
    15   13   14 1
    16   14   15 1
    17    7   16 1
    18   16   17 1
    19   17   18 1
    20    6   19 1
    21    1   20 1
    22    1   21 1
    23    1   22 1
    24    2   23 1
    25    2   24 1
    26    5   25 1
    27    8   26 1
    28   11   27 1
    29   11   28 1
    30   12   29 1
    31   12   30 1
    32   14   31 1
    33   14   32 1
    34   15   33 1
    35   15   34 1
    36   17   35 1
    37   17   36 1
    38   18   37 1
    39   18   38 1
    40   18   39 1
    41   19   40 1
    42   19   41 1
