@<TRIPOS>MOLECULE
3-(4-pyridylmethylamino)benzoic acid
   29    30     0     0     0
SMALL
USER_CHARGES

@<TRIPOS>ATOM
      1 C1          1.6659   -1.5809    0.0005 C.ar      1 MOL        -0.1097
      2 C2          2.9207   -1.6309    0.6077 C.ar      1 MOL        -0.1165
      3 C3          3.0971   -1.1074    1.8885 C.ar      1 MOL        -0.0970
      4 C4          2.0186   -0.5341    2.5623 C.ar      1 MOL        -0.1298
      5 C5          0.7638   -0.4841    1.9551 C.ar      1 MOL         0.1391
      6 C6          0.5875   -1.0076    0.6742 C.ar      1 MOL        -0.1640
      7 N1         -0.3265    0.0961    2.6360 N.pl3     1 MOL        -0.7389
      8 C7         -1.6384    0.1800    2.0726 C.3       1 MOL         0.2339
      9 C8         -2.6160    0.8427    3.0039 C.ar      1 MOL        -0.0705
     10 C9         -3.3419    0.0800    3.9120 C.ar      1 MOL        -0.2310
     11 C10        -4.2291    0.7380    4.7484 C.ar      1 MOL         0.3933
     12 N2         -4.4320    2.0745    4.7355 N.ar      1 MOL        -0.6573
     13 C11        -3.7088    2.7828    3.8395 C.ar      1 MOL         0.3933
     14 C12        -2.7970    2.2206    2.9606 C.ar      1 MOL        -0.2310
     15 C13         4.4052   -1.1604    2.5219 C.2       1 MOL         0.6511
     16 O1          4.6734   -0.7290    3.6481 O.2       1 MOL        -0.5522
     17 O2          5.3426   -1.7519    1.7317 O.3       1 MOL        -0.6077
     18 H1          1.5287   -1.9886   -0.9967 H         1 MOL         0.1386
     19 H2          3.7540   -2.0803    0.0738 H         1 MOL         0.1561
     20 H3          2.1561   -0.1260    3.5616 H         1 MOL         0.1585
     21 H4         -0.3859   -0.9740    0.1914 H         1 MOL         0.1366
     22 H5         -0.1481    0.4595    3.5532 H         1 MOL         0.4113
     23 H6         -1.9737   -0.8361    1.8281 H         1 MOL         0.0490
     24 H7         -1.5693    0.7310    1.1263 H         1 MOL         0.0490
     25 H8         -3.2230   -0.9966    3.9714 H         1 MOL         0.1490
     26 H9         -4.8183    0.1886    5.4755 H         1 MOL         0.0259
     27 H10        -3.8864    3.8531    3.8454 H         1 MOL         0.0259
     28 H11        -2.2458    2.8422    2.2633 H         1 MOL         0.1490
     29 H12         6.2287   -1.7933    2.1505 H         1 MOL         0.4459
@<TRIPOS>BOND
     1    1    6 ar
     2    1    2 ar
     3    2    3 ar
     4    3    4 ar
     5    4    5 ar
     6    5    6 ar
     7    5    7 1
     8    7    8 1
     9    8    9 1
    10    9   14 ar
    11    9   10 ar
    12   10   11 ar
    13   11   12 ar
    14   12   13 ar
    15   13   14 ar
    16    3   15 1
    17   15   16 2
    18   15   17 1
    19    1   18 1
    20    2   19 1
    21    4   20 1
    22    6   21 1
    23    7   22 1
    24    8   23 1
    25    8   24 1
    26   10   25 1
    27   11   26 1
    28   13   27 1
    29   14   28 1
    30   17   29 1
