@<TRIPOS>MOLECULE
[1-(2-bromoallyl)benzimidazol-2-yl]methanol
   26    27     0     0     0
SMALL
USER_CHARGES

@<TRIPOS>ATOM
      1 C1          4.9115   -4.3921    4.6486 C.2       1 MOL        -0.1685
      2 C2          4.8209   -3.3052    3.8699 C.2       1 MOL        -0.1038
      3 C3          4.7557   -3.3761    2.3667 C.3       1 MOL         0.2728
      4 N1          5.8380   -2.6864    1.7069 N.pl3     1 MOL        -0.5985
      5 C4          5.8483   -1.3678    1.3135 C.ar      1 MOL         0.0649
      6 C5          4.8579   -0.3793    1.4414 C.ar      1 MOL        -0.1311
      7 C6          5.1269    0.9040    0.9491 C.ar      1 MOL        -0.1115
      8 C7          6.3503    1.2005    0.3438 C.ar      1 MOL        -0.1552
      9 C8          7.3475    0.2289    0.2084 C.ar      1 MOL        -0.0657
     10 C9          7.0575   -1.0420    0.7058 C.ar      1 MOL         0.0622
     11 N2          7.7819   -2.2058    0.7425 N.2       1 MOL        -0.5192
     12 C10         7.0113   -3.1582    1.3494 C.2       1 MOL         0.5288
     13 C11         7.4257   -4.5562    1.5861 C.3       1 MOL         0.1240
     14 O1          8.7469   -4.7630    1.0878 O.3       1 MOL        -0.5594
     15 Br1         4.7017   -1.5887    4.6109 Br        1 MOL        -0.0681
     16 H1          4.9565   -4.3049    5.7294 H         1 MOL         0.1302
     17 H2          4.9404   -5.3932    4.2312 H         1 MOL         0.1302
     18 H3          4.7661   -4.4223    2.0306 H         1 MOL         0.0717
     19 H4          3.7907   -2.9843    2.0185 H         1 MOL         0.0717
     20 H5          3.9031   -0.5965    1.9106 H         1 MOL         0.1375
     21 H6          4.3717    1.6804    1.0397 H         1 MOL         0.1312
     22 H7          6.5313    2.2045   -0.0316 H         1 MOL         0.1323
     23 H8          8.2960    0.4600   -0.2624 H         1 MOL         0.1488
     24 H9          7.4219   -4.8142    2.6594 H         1 MOL         0.0360
     25 H10         6.7538   -5.2745    1.0851 H         1 MOL         0.0360
     26 H11         8.9661   -5.6898    1.2681 H         1 MOL         0.4028
@<TRIPOS>BOND
     1    1    2 2
     2    2    3 1
     3    3    4 1
     4    4   12 1
     5    4    5 1
     6    5   10 ar
     7    5    6 ar
     8    6    7 ar
     9    7    8 ar
    10    8    9 ar
    11    9   10 ar
    12   10   11 1
    13   11   12 2
    14   12   13 1
    15   13   14 1
    16    2   15 1
    17    1   16 1
    18    1   17 1
    19    3   18 1
    20    3   19 1
    21    6   20 1
    22    7   21 1
    23    8   22 1
    24    9   23 1
    25   13   24 1
    26   13   25 1
    27   14   26 1
