@<TRIPOS>MOLECULE
2,8-dimethylpyrido[2,3]pyrazolo[2,4-~{a}]pyrimidin-4-ol
   26    28     0     0     0
SMALL
USER_CHARGES

@<TRIPOS>ATOM
      1 C1          2.6935    1.4952   -4.1452 C.3       1 MOL        -0.1383
      2 C2          1.9240    1.2388   -2.8855 C.ar      1 MOL         0.4860
      3 C3          1.7123    2.3383   -2.0212 C.ar      1 MOL        -0.3113
      4 C4          1.0048    2.1917   -0.8240 C.ar      1 MOL         0.0059
      5 C5          0.5914    0.8748   -0.6689 C.ar      1 MOL        -0.2640
      6 C6          0.8155   -0.2167   -1.5518 C.ar      1 MOL         0.5535
      7 N1          1.5073   -0.0558   -2.7152 N.ar      1 MOL        -0.6258
      8 N2          0.2725   -1.3401   -1.0801 N.2       1 MOL        -0.5018
      9 N3         -0.3039   -0.9847    0.1063 N.pl3     1 MOL         0.1809
     10 C7         -0.1250    0.3743    0.3887 C.2       1 MOL         0.1687
     11 N4         -0.6216    0.9384    1.5254 N.2       1 MOL        -0.5526
     12 C8         -1.2699    0.1530    2.3351 C.2       1 MOL         0.4970
     13 C9         -1.5103   -1.3049    2.1182 C.2       1 MOL        -0.3974
     14 C10        -1.0036   -1.8136    0.9884 C.2       1 MOL         0.2277
     15 O1         -1.1659   -3.1503    0.6850 O.3       1 MOL        -0.4498
     16 C11        -1.8360    0.7386    3.6032 C.3       1 MOL        -0.1353
     17 H1          2.0092    1.7767   -4.9513 H         1 MOL         0.0570
     18 H2          3.4216    2.3003   -4.0015 H         1 MOL         0.0570
     19 H3          3.2523    0.6040   -4.4501 H         1 MOL         0.0570
     20 H4          2.1034    3.3185   -2.2852 H         1 MOL         0.1444
     21 H5          0.8210    3.0040   -0.1360 H         1 MOL         0.1494
     22 H6         -2.0619   -1.8835    2.8467 H         1 MOL         0.1612
     23 H7         -1.6653   -3.5852    1.3834 H         1 MOL         0.4423
     24 H8         -2.8438    1.0930    3.4123 H         1 MOL         0.0627
     25 H9         -1.2083    1.5634    3.9259 H         1 MOL         0.0627
     26 H10        -1.8520   -0.0271    4.3725 H         1 MOL         0.0627
@<TRIPOS>BOND
     1    1    2 1
     2    2    7 ar
     3    2    3 ar
     4    3    4 ar
     5    4    5 ar
     6    5   10 2
     7    5    6 ar
     8    6    7 ar
     9    6    8 2
    10    8    9 1
    11    9   14 1
    12    9   10 1
    13   10   11 1
    14   11   12 2
    15   12   13 1
    16   13   14 2
    17   14   15 1
    18   12   16 1
    19    1   17 1
    20    1   18 1
    21    1   19 1
    22    3   20 1
    23    4   21 1
    24   13   22 1
    25   15   23 1
    26   16   24 1
    27   16   25 1
    28   16   26 1
