@<TRIPOS>MOLECULE
2-[(4,6-dimethylpyrimidin-2-yl)amino]benzoic acid
   31    32     0     0     0
SMALL
USER_CHARGES

@<TRIPOS>ATOM
      1 C1          1.2794   -0.0162   -6.1311 C.3       1 MOL        -0.1580
      2 C2          0.9691    0.2494   -4.6962 C.ar      1 MOL         0.4839
      3 C3          0.0665    1.2402   -4.3679 C.ar      1 MOL        -0.4143
      4 C4         -0.1606    1.4176   -3.0183 C.ar      1 MOL         0.4839
      5 N1          0.4413    0.6897   -2.0549 N.ar      1 MOL        -0.7463
      6 C5          1.3003   -0.2458   -2.5026 C.ar      1 MOL         0.8882
      7 N2          1.6069   -0.5154   -3.7859 N.ar      1 MOL        -0.7463
      8 N3          1.9477   -1.0258   -1.5237 N.pl3     1 MOL        -0.7220
      9 C6          1.8851   -1.0363   -0.1124 C.ar      1 MOL         0.2303
     10 C7          1.6069    0.1519    0.5631 C.ar      1 MOL        -0.1562
     11 C8          1.5409    0.1631    1.9564 C.ar      1 MOL        -0.0758
     12 C9          1.7531   -1.0140    2.6741 C.ar      1 MOL        -0.1742
     13 C10         2.0314   -2.2022    1.9985 C.ar      1 MOL        -0.0490
     14 C11         2.0975   -2.2133    0.6052 C.ar      1 MOL        -0.1954
     15 C12         2.3907   -3.4710   -0.0705 C.2       1 MOL         0.6549
     16 O1          1.9934   -3.7856   -1.1951 O.2       1 MOL        -0.5686
     17 O2          3.1716   -4.2924    0.6814 O.3       1 MOL        -0.6032
     18 C13        -1.1208    2.4660   -2.5659 C.3       1 MOL        -0.1580
     19 H1          0.5914   -0.7678   -6.5300 H         1 MOL         0.0593
     20 H2          1.1888    0.8983   -6.7265 H         1 MOL         0.0593
     21 H3          2.3063   -0.3784   -6.2483 H         1 MOL         0.0593
     22 H4         -0.4314    1.8396   -5.1203 H         1 MOL         0.1540
     23 H5          2.5858   -1.7165   -1.9090 H         1 MOL         0.4740
     24 H6          1.4394    1.0755    0.0148 H         1 MOL         0.1658
     25 H7          1.3227    1.0879    2.4824 H         1 MOL         0.1370
     26 H8          1.7012   -1.0053    3.7589 H         1 MOL         0.1404
     27 H9          2.1943   -3.1130    2.5691 H         1 MOL         0.1530
     28 H10         3.3756   -5.1417    0.2348 H         1 MOL         0.4461
     29 H11        -2.1323    2.0492   -2.4891 H         1 MOL         0.0593
     30 H12        -0.8356    2.8709   -1.5864 H         1 MOL         0.0593
     31 H13        -1.1447    3.3120   -3.2649 H         1 MOL         0.0593
@<TRIPOS>BOND
     1    1    2 1
     2    2    7 ar
     3    2    3 ar
     4    3    4 ar
     5    4    5 ar
     6    5    6 ar
     7    6    7 ar
     8    6    8 1
     9    8    9 1
    10    9   14 ar
    11    9   10 ar
    12   10   11 ar
    13   11   12 ar
    14   12   13 ar
    15   13   14 ar
    16   14   15 1
    17   15   16 2
    18   15   17 1
    19    4   18 1
    20    1   19 1
    21    1   20 1
    22    1   21 1
    23    3   22 1
    24    8   23 1
    25   10   24 1
    26   11   25 1
    27   12   26 1
    28   13   27 1
    29   17   28 1
    30   18   29 1
    31   18   30 1
    32   18   31 1
