@<TRIPOS>MOLECULE
2-butoxy-~{N}-[2-(diethylamino)ethyl]quinoline-4-carboxamide
   54    55     0     0     0
SMALL
USER_CHARGES

@<TRIPOS>ATOM
      1 C1        -10.2662    0.3841   -1.4568 C.3       1 MOL        -0.0933
      2 C2         -8.7636    0.3086   -1.2389 C.3       1 MOL        -0.0803
      3 C3         -8.0984    1.6652   -1.4533 C.3       1 MOL        -0.0892
      4 C4         -6.5936    1.5940   -1.2361 C.3       1 MOL         0.1370
      5 O1         -6.0366    2.8855   -1.4504 O.3       1 MOL        -0.4526
      6 C5         -4.6804    3.0058   -1.2959 C.ar      1 MOL         0.6355
      7 C6         -4.0902    4.2376   -1.4936 C.ar      1 MOL        -0.2245
      8 C7         -2.7151    4.3237   -1.3301 C.ar      1 MOL        -0.0660
      9 C8         -1.9747    3.1875   -0.9770 C.ar      1 MOL        -0.1478
     10 C9         -0.5812    3.2417   -0.8037 C.ar      1 MOL        -0.0934
     11 C10         0.1298    2.0977   -0.4527 C.ar      1 MOL        -0.1361
     12 C11        -0.5469    0.8976   -0.2738 C.ar      1 MOL        -0.1098
     13 C12        -1.9323    0.8440   -0.4461 C.ar      1 MOL        -0.1808
     14 C13        -2.6683    1.9725   -0.7968 C.ar      1 MOL         0.4290
     15 N1         -4.0027    1.8858   -0.9548 N.ar      1 MOL        -0.7214
     16 C14        -2.0995    5.6305   -1.5410 C.2       1 MOL         0.6681
     17 O2         -1.4741    6.1832   -0.6225 O.2       1 MOL        -0.5886
     18 N2         -2.2347    6.1927   -2.8130 N.am      1 MOL        -0.5744
     19 C15        -1.6625    7.4670   -3.1836 C.3       1 MOL         0.0913
     20 C16        -0.2597    7.3174   -3.7409 C.3       1 MOL         0.1516
     21 N3          0.3132    8.5833   -4.1108 N.3       1 MOL        -0.7205
     22 C17         0.4004    9.4899   -2.9555 C.3       1 MOL         0.1617
     23 C18         1.2478    8.8864   -1.9046 C.3       1 MOL        -0.0958
     24 C19        -0.4602    9.2282   -5.1834 C.3       1 MOL         0.1617
     25 C20        -0.4811    8.3605   -6.3807 C.3       1 MOL        -0.0958
     26 H1        -10.7349   -0.5928   -1.3010 H         1 MOL         0.0331
     27 H2        -10.7268    1.1001   -0.7686 H         1 MOL         0.0331
     28 H3        -10.4852    0.7068   -2.4794 H         1 MOL         0.0331
     29 H4         -8.5652   -0.0466   -0.2209 H         1 MOL         0.0470
     30 H5         -8.3370   -0.4289   -1.9287 H         1 MOL         0.0470
     31 H6         -8.3021    2.0322   -2.4669 H         1 MOL         0.0524
     32 H7         -8.5286    2.4108   -0.7729 H         1 MOL         0.0524
     33 H8         -6.3609    1.2798   -0.2137 H         1 MOL         0.0556
     34 H9         -6.1300    0.8940   -1.9386 H         1 MOL         0.0556
     35 H10        -4.6851    5.1038   -1.7649 H         1 MOL         0.1639
     36 H11        -0.0262    4.1669   -0.9367 H         1 MOL         0.1550
     37 H12         1.2064    2.1423   -0.3194 H         1 MOL         0.1381
     38 H13        -0.0001   -0.0001   -0.0005 H         1 MOL         0.1364
     39 H14        -2.4396   -0.1078   -0.3000 H         1 MOL         0.1505
     40 H15        -2.7030    5.6670   -3.5438 H         1 MOL         0.3174
     41 H16        -2.3395    7.9228   -3.9100 H         1 MOL         0.0598
     42 H17        -1.6495    8.0803   -2.2797 H         1 MOL         0.0598
     43 H18         0.3980    6.8754   -2.9861 H         1 MOL         0.0355
     44 H19        -0.2469    6.6781   -4.6295 H         1 MOL         0.0355
     45 H20         0.8192   10.4161   -3.3326 H         1 MOL         0.0331
     46 H21        -0.6188    9.6471   -2.6213 H         1 MOL         0.0331
     47 H22         1.3305    9.5414   -1.0304 H         1 MOL         0.0401
     48 H23         0.8622    7.9107   -1.5895 H         1 MOL         0.0401
     49 H24         2.2551    8.7373   -2.3115 H         1 MOL         0.0401
     50 H25        -1.4540    9.3888   -4.7810 H         1 MOL         0.0331
     51 H26         0.0264   10.1780   -5.3731 H         1 MOL         0.0331
     52 H27        -1.0514    8.8167   -7.1971 H         1 MOL         0.0401
     53 H28         0.5322    8.1347   -6.7303 H         1 MOL         0.0401
     54 H29        -0.9673    7.4136   -6.1169 H         1 MOL         0.0401
@<TRIPOS>BOND
     1    1    2 1
     2    2    3 1
     3    3    4 1
     4    4    5 1
     5    5    6 1
     6    6   15 ar
     7    6    7 ar
     8    7    8 ar
     9    8    9 ar
    10    9   14 ar
    11    9   10 ar
    12   10   11 ar
    13   11   12 ar
    14   12   13 ar
    15   13   14 ar
    16   14   15 ar
    17    8   16 1
    18   16   17 2
    19   16   18 am
    20   18   19 1
    21   19   20 1
    22   20   21 1
    23   21   22 1
    24   22   23 1
    25   21   24 1
    26   24   25 1
    27    1   26 1
    28    1   27 1
    29    1   28 1
    30    2   29 1
    31    2   30 1
    32    3   31 1
    33    3   32 1
    34    4   33 1
    35    4   34 1
    36    7   35 1
    37   10   36 1
    38   11   37 1
    39   12   38 1
    40   13   39 1
    41   18   40 1
    42   19   41 1
    43   19   42 1
    44   20   43 1
    45   20   44 1
    46   22   45 1
    47   22   46 1
    48   23   47 1
    49   23   48 1
    50   23   49 1
    51   24   50 1
    52   24   51 1
    53   25   52 1
    54   25   53 1
    55   25   54 1
