@<TRIPOS>MOLECULE
6,7-dimethyl-2,3-bis(2-pyridyl)quinoxaline
   40    43     0     0     0
SMALL
USER_CHARGES

@<TRIPOS>ATOM
      1 C1         -0.3435    0.0969   -0.1966 C.3       1 MOL        -0.0586
      2 C2          0.8925   -0.2271    0.5751 C.ar      1 MOL        -0.0634
      3 C3          0.9988    0.1958    1.8989 C.ar      1 MOL        -0.1608
      4 C4          2.1323   -0.0820    2.6593 C.ar      1 MOL         0.2897
      5 C5          3.1886   -0.8044    2.0745 C.ar      1 MOL         0.2897
      6 C6          3.0723   -1.2223    0.7509 C.ar      1 MOL        -0.1608
      7 C7          1.9338   -0.9390   -0.0015 C.ar      1 MOL        -0.0634
      8 C8          1.8590   -1.4097   -1.4160 C.3       1 MOL        -0.0585
      9 N1          4.2972   -1.0899    2.7798 N.ar      1 MOL        -0.6030
     10 C9          4.3566   -0.6622    4.0538 C.ar      1 MOL         0.2759
     11 C10         3.3285    0.0410    4.6230 C.ar      1 MOL         0.2759
     12 N2          2.2113    0.3367    3.9346 N.ar      1 MOL        -0.6030
     13 C11         3.3442    0.5220    5.9848 C.ar      1 MOL         0.3555
     14 C12         2.3846    0.1131    6.8968 C.ar      1 MOL        -0.2240
     15 C13         2.4608    0.6160    8.1909 C.ar      1 MOL        -0.0958
     16 C14         3.4798    1.4996    8.5285 C.ar      1 MOL        -0.2397
     17 C15         4.3905    1.8463    7.5435 C.ar      1 MOL         0.3960
     18 N3          4.3488    1.3786    6.2758 N.ar      1 MOL        -0.6292
     19 C16         5.5745   -1.0053    4.7502 C.ar      1 MOL         0.3555
     20 C17         6.8062   -0.5667    4.2915 C.ar      1 MOL        -0.2240
     21 C18         7.9373   -0.9345    5.0116 C.ar      1 MOL        -0.0958
     22 C19         7.8040   -1.7183    6.1523 C.ar      1 MOL        -0.2397
     23 C20         6.5276   -2.1052    6.5278 C.ar      1 MOL         0.3960
     24 N4          5.4054   -1.7676    5.8538 N.ar      1 MOL        -0.6292
     25 H1         -1.0811   -0.7023   -0.0751 H         1 MOL         0.0487
     26 H2         -0.7829    1.0393    0.1466 H         1 MOL         0.0487
     27 H3         -0.1197    0.2132   -1.2623 H         1 MOL         0.0487
     28 H4          0.1795    0.7548    2.3482 H         1 MOL         0.1545
     29 H5          3.8879   -1.7816    0.2950 H         1 MOL         0.1545
     30 H6          1.4125   -2.4101   -1.4612 H         1 MOL         0.0487
     31 H7          1.2547   -0.7298   -2.0295 H         1 MOL         0.0487
     32 H8          2.8555   -1.4512   -1.8739 H         1 MOL         0.0487
     33 H9          1.5932   -0.5780    6.6251 H         1 MOL         0.1466
     34 H10         1.7266    0.3207    8.9344 H         1 MOL         0.1390
     35 H11         3.5574    1.9063    9.5302 H         1 MOL         0.1446
     36 H12         5.2044    2.5319    7.7551 H         1 MOL         0.0265
     37 H13         6.9012    0.0460    3.4007 H         1 MOL         0.1466
     38 H14         8.9209   -0.6119    4.6837 H         1 MOL         0.1390
     39 H15         8.6717   -2.0193    6.7278 H         1 MOL         0.1446
     40 H16         6.3689   -2.7169    7.4098 H         1 MOL         0.0265
@<TRIPOS>BOND
     1    1    2 1
     2    2    7 ar
     3    2    3 ar
     4    3    4 ar
     5    4   12 ar
     6    4    5 ar
     7    5    6 ar
     8    6    7 ar
     9    7    8 1
    10    5    9 ar
    11    9   10 ar
    12   10   11 ar
    13   11   12 ar
    14   11   13 1
    15   13   18 ar
    16   13   14 ar
    17   14   15 ar
    18   15   16 ar
    19   16   17 ar
    20   17   18 ar
    21   10   19 1
    22   19   24 ar
    23   19   20 ar
    24   20   21 ar
    25   21   22 ar
    26   22   23 ar
    27   23   24 ar
    28    1   25 1
    29    1   26 1
    30    1   27 1
    31    3   28 1
    32    6   29 1
    33    8   30 1
    34    8   31 1
    35    8   32 1
    36   14   33 1
    37   15   34 1
    38   16   35 1
    39   17   36 1
    40   20   37 1
    41   21   38 1
    42   22   39 1
    43   23   40 1
