@<TRIPOS>MOLECULE
4-[4-(4-chlorophenyl)-4-hydroxy-1-piperidyl]-1-(4-fluorophenyl)butan-1-one
   49    51     0     0     0
SMALL
USER_CHARGES

@<TRIPOS>ATOM
      1 C1         -0.9665   -2.0229   -4.6568 C.ar      1 MOL        -0.0622
      2 C2         -0.7663   -3.3856   -4.4362 C.ar      1 MOL        -0.1782
      3 C3         -1.7531   -4.1422   -3.8042 C.ar      1 MOL         0.1509
      4 C4         -2.9402   -3.5361   -3.3929 C.ar      1 MOL        -0.1782
      5 C5         -3.1404   -2.1733   -3.6135 C.ar      1 MOL        -0.0622
      6 C6         -2.1535   -1.4168   -4.2455 C.ar      1 MOL        -0.1864
      7 C7         -2.3665    0.0395   -4.4806 C.2       1 MOL         0.5771
      8 O1         -1.8359    0.5712   -5.4528 O.2       1 MOL        -0.5278
      9 C8         -3.2552    0.8114   -3.5155 C.3       1 MOL        -0.1707
     10 C9         -2.8596    2.2848   -3.3716 C.3       1 MOL        -0.0784
     11 C10        -1.4369    2.4929   -2.8551 C.3       1 MOL         0.1784
     12 N1         -1.2260    1.9003   -1.5346 N.3       1 MOL        -0.7300
     13 C11        -1.8305    2.7368   -0.4929 C.3       1 MOL         0.1706
     14 C12        -1.6672    2.1111    0.8983 C.3       1 MOL        -0.0824
     15 C13        -0.1986    1.7791    1.2500 C.3       1 MOL         0.2020
     16 C14         0.4289    1.0086    0.0669 C.3       1 MOL        -0.0824
     17 C15         0.2050    1.6969   -1.2846 C.3       1 MOL         0.1706
     18 C16        -0.1190    1.0647    2.6002 C.ar      1 MOL        -0.1112
     19 C17        -0.5906    1.6955    3.7515 C.ar      1 MOL        -0.1097
     20 C18        -0.5196    1.0438    4.9827 C.ar      1 MOL        -0.1268
     21 C19         0.0230   -0.2388    5.0626 C.ar      1 MOL         0.0215
     22 C20         0.4946   -0.8695    3.9113 C.ar      1 MOL        -0.1268
     23 C21         0.4236   -0.2177    2.6801 C.ar      1 MOL        -0.1097
     24 Cl1         0.1121   -1.0403    6.5828 Cl        1 MOL        -0.0905
     25 O2          0.5392    2.9987    1.4192 O.3       1 MOL        -0.5943
     26 F1         -1.5607   -5.4506   -3.5917 F         1 MOL        -0.1349
     27 H1         -0.1906   -1.4430   -5.1501 H         1 MOL         0.1489
     28 H2          0.1580   -3.8575   -4.7557 H         1 MOL         0.1534
     29 H3         -3.7085   -4.1253   -2.9005 H         1 MOL         0.1534
     30 H4         -4.0691   -1.7113   -3.2883 H         1 MOL         0.1489
     31 H5         -3.2371    0.3295   -2.5324 H         1 MOL         0.0642
     32 H6         -4.2778    0.7660   -3.9081 H         1 MOL         0.0642
     33 H7         -3.5644    2.7664   -2.6821 H         1 MOL         0.0620
     34 H8         -2.9640    2.7929   -4.3378 H         1 MOL         0.0620
     35 H9         -1.2294    3.5633   -2.7584 H         1 MOL         0.0299
     36 H10        -0.6938    2.0647   -3.5340 H         1 MOL         0.0299
     37 H11        -1.3903    3.7428   -0.4957 H         1 MOL         0.0379
     38 H12        -2.9037    2.8545   -0.6871 H         1 MOL         0.0379
     39 H13        -2.0812    2.8057    1.6409 H         1 MOL         0.0565
     40 H14        -2.2747    1.1966    0.9449 H         1 MOL         0.0565
     41 H15         1.5102    0.9012    0.2234 H         1 MOL         0.0565
     42 H16         0.0132   -0.0076    0.0214 H         1 MOL         0.0565
     43 H17         0.7501    2.6495   -1.3126 H         1 MOL         0.0379
     44 H18         0.6317    1.0562   -2.0661 H         1 MOL         0.0379
     45 H19        -1.0149    2.6945    3.6990 H         1 MOL         0.1396
     46 H20        -0.8915    1.5472    5.8713 H         1 MOL         0.1481
     47 H21         0.9196   -1.8690    3.9585 H         1 MOL         0.1481
     48 H22         0.7932   -0.7168    1.7882 H         1 MOL         0.1396
     49 H23         0.4835    3.4736    0.5758 H         1 MOL         0.4018
@<TRIPOS>BOND
     1    1    6 ar
     2    1    2 ar
     3    2    3 ar
     4    3    4 ar
     5    4    5 ar
     6    5    6 ar
     7    6    7 1
     8    7    8 2
     9    7    9 1
    10    9   10 1
    11   10   11 1
    12   11   12 1
    13   12   17 1
    14   12   13 1
    15   13   14 1
    16   14   15 1
    17   15   16 1
    18   16   17 1
    19   15   18 1
    20   18   23 ar
    21   18   19 ar
    22   19   20 ar
    23   20   21 ar
    24   21   22 ar
    25   22   23 ar
    26   21   24 1
    27   15   25 1
    28    3   26 1
    29    1   27 1
    30    2   28 1
    31    4   29 1
    32    5   30 1
    33    9   31 1
    34    9   32 1
    35   10   33 1
    36   10   34 1
    37   11   35 1
    38   11   36 1
    39   13   37 1
    40   13   38 1
    41   14   39 1
    42   14   40 1
    43   16   41 1
    44   16   42 1
    45   17   43 1
    46   17   44 1
    47   19   45 1
    48   20   46 1
    49   22   47 1
    50   23   48 1
    51   25   49 1
