@<TRIPOS>MOLECULE
~{N}-(1,3-benzothiazol-6-yl)-2-oxo-chromene-3-carboxamide
   33    36     0     0     0
SMALL
USER_CHARGES

@<TRIPOS>ATOM
      1 C1         -2.0695    2.5977    0.1009 C.ar      1 MOL        -0.1617
      2 C2         -1.7503    1.2505   -0.0827 C.ar      1 MOL        -0.0695
      3 C3         -1.6162    0.7346   -1.3698 C.ar      1 MOL        -0.1503
      4 C4         -1.8050    1.5815   -2.4601 C.ar      1 MOL         0.1736
      5 C5         -2.1234    2.9264   -2.2967 C.ar      1 MOL        -0.1813
      6 C6         -2.2560    3.4354   -1.0026 C.ar      1 MOL        -0.0640
      7 C7         -2.3067    3.7547   -3.4782 C.2       1 MOL         0.0228
      8 C8         -2.1693    3.2227   -4.6962 C.2       1 MOL        -0.2593
      9 C9         -1.8318    1.7979   -4.8982 C.2       1 MOL         0.7394
     10 O1         -1.7062    1.3114   -6.0167 O.2       1 MOL        -0.5214
     11 O2         -1.6626    1.0302   -3.7491 O.3       1 MOL        -0.3233
     12 C10        -2.3714    4.1394   -5.8254 C.2       1 MOL         0.6907
     13 O3         -3.4527    4.7085   -5.9625 O.2       1 MOL        -0.5414
     14 N1         -1.2432    4.2380   -6.6276 N.am      1 MOL        -0.4769
     15 C11        -1.0799    5.0226   -7.7953 C.ar      1 MOL         0.0779
     16 C12         0.1314    4.9974   -8.4776 C.ar      1 MOL        -0.1827
     17 C13         0.3125    5.7647   -9.6320 C.ar      1 MOL        -0.0442
     18 C14        -0.7428    6.5717  -10.1094 C.ar      1 MOL         0.0489
     19 C15        -1.9515    6.5805   -9.4067 C.ar      1 MOL        -0.0625
     20 C16        -2.1404    5.8125   -8.2464 C.ar      1 MOL        -0.1240
     21 S1         -3.0569    7.6399  -10.1996 S.3       1 MOL        -0.0165
     22 C17        -1.8652    7.9863  -11.3768 C.2       1 MOL         0.3402
     23 N2         -0.7089    7.3815  -11.2354 N.2       1 MOL        -0.5121
     24 H1         -2.1732    2.9967    1.1060 H         1 MOL         0.1431
     25 H2         -1.6068    0.6051    0.7789 H         1 MOL         0.1463
     26 H3         -1.3682   -0.3124   -1.5143 H         1 MOL         0.1651
     27 H4         -2.5036    4.4811   -0.8376 H         1 MOL         0.1420
     28 H5         -2.5542    4.8008   -3.3268 H         1 MOL         0.1532
     29 H6         -0.4393    3.6816   -6.3435 H         1 MOL         0.3170
     30 H7          0.9533    4.3807   -8.1212 H         1 MOL         0.1316
     31 H8          1.2628    5.7368  -10.1578 H         1 MOL         0.1531
     32 H9         -3.0884    5.8337   -7.7158 H         1 MOL         0.1843
     33 H10        -2.0593    8.6684  -12.1931 H         1 MOL         0.0620
@<TRIPOS>BOND
     1    1    6 ar
     2    1    2 ar
     3    2    3 ar
     4    3    4 ar
     5    4   11 1
     6    4    5 ar
     7    5    6 ar
     8    5    7 1
     9    7    8 2
    10    8    9 1
    11    9   10 2
    12    9   11 1
    13    8   12 1
    14   12   13 2
    15   12   14 am
    16   14   15 1
    17   15   20 ar
    18   15   16 ar
    19   16   17 ar
    20   17   18 ar
    21   18   23 1
    22   18   19 ar
    23   19   20 ar
    24   19   21 1
    25   21   22 1
    26   22   23 2
    27    1   24 1
    28    2   25 1
    29    3   26 1
    30    6   27 1
    31    7   28 1
    32   14   29 1
    33   16   30 1
    34   17   31 1
    35   20   32 1
    36   22   33 1
