@<TRIPOS>MOLECULE
6-chloro-2-(4-chlorophenyl)-~{N}-isopropyl-imidazo[1,2-a]pyridin-3-amine
   36    38     0     0     0
SMALL
USER_CHARGES

@<TRIPOS>ATOM
      1 C1         -2.0219    0.9228    1.2481 C.3       1 MOL        -0.1136
      2 C2         -0.6651    1.3013    0.6723 C.3       1 MOL         0.1876
      3 C3         -0.7552    2.5294   -0.2217 C.3       1 MOL        -0.1136
      4 N1         -0.1553    0.1952   -0.1030 N.pl3     1 MOL        -0.6885
      5 C4          0.6132   -0.7901    0.4113 C.2       1 MOL        -0.0402
      6 C5          1.8399   -0.7821    1.0325 C.2       1 MOL         0.3967
      7 N2          2.2272   -2.0488    1.3896 N.2       1 MOL        -0.6404
      8 C6          1.2481   -2.8356    0.9924 C.2       1 MOL         0.4464
      9 N3          0.2302   -2.1066    0.3837 N.pl3     1 MOL        -0.1258
     10 C7         -0.9290   -2.6813   -0.1316 C.2       1 MOL        -0.0753
     11 C8         -1.0869   -4.0127   -0.0434 C.2       1 MOL        -0.0162
     12 C9         -0.0474   -4.8139    0.5861 C.2       1 MOL        -0.1245
     13 C10         1.0702   -4.2473    1.0814 C.2       1 MOL        -0.1838
     14 Cl1        -2.4889   -4.7969   -0.6556 Cl        1 MOL        -0.0732
     15 C11         2.6316    0.3834    1.2860 C.ar      1 MOL        -0.1097
     16 C12         2.9698    0.7251    2.5955 C.ar      1 MOL        -0.0944
     17 C13         3.7406    1.8610    2.8429 C.ar      1 MOL        -0.1339
     18 C14         4.1730    2.6553    1.7809 C.ar      1 MOL         0.0214
     19 C15         3.8346    2.3137    0.4715 C.ar      1 MOL        -0.1339
     20 C16         3.0639    1.1777    0.2241 C.ar      1 MOL        -0.0944
     21 Cl2         5.1234    4.0573    2.0858 Cl        1 MOL        -0.0983
     22 H1         -1.9409    0.0384    1.8884 H         1 MOL         0.0425
     23 H2         -2.4448    1.7387    1.8450 H         1 MOL         0.0425
     24 H3         -2.7347    0.6976    0.4473 H         1 MOL         0.0425
     25 H4          0.0392    1.4952    1.4886 H         1 MOL         0.0817
     26 H5          0.2293    2.7875   -0.6272 H         1 MOL         0.0425
     27 H6         -1.1279    3.3930    0.3387 H         1 MOL         0.0425
     28 H7         -1.4262    2.3582   -1.0709 H         1 MOL         0.0425
     29 H8         -0.3887    0.1555   -1.0889 H         1 MOL         0.3839
     30 H9         -1.6636   -2.0269   -0.5864 H         1 MOL         0.1699
     31 H10        -0.1853   -5.8884    0.6527 H         1 MOL         0.1570
     32 H11         1.8395   -4.8519    1.5484 H         1 MOL         0.1693
     33 H12         2.6405    0.1167    3.4346 H         1 MOL         0.1487
     34 H13         3.9968    2.1147    3.8685 H         1 MOL         0.1467
     35 H14         4.1642    2.9238   -0.3655 H         1 MOL         0.1467
     36 H15         2.8080    0.9256   -0.8025 H         1 MOL         0.1487
@<TRIPOS>BOND
     1    1    2 1
     2    2    3 1
     3    2    4 1
     4    4    5 1
     5    5    9 1
     6    5    6 2
     7    6    7 1
     8    7    8 2
     9    8   13 1
    10    8    9 1
    11    9   10 1
    12   10   11 2
    13   11   12 1
    14   12   13 2
    15   11   14 1
    16    6   15 1
    17   15   20 ar
    18   15   16 ar
    19   16   17 ar
    20   17   18 ar
    21   18   19 ar
    22   19   20 ar
    23   18   21 1
    24    1   22 1
    25    1   23 1
    26    1   24 1
    27    2   25 1
    28    3   26 1
    29    3   27 1
    30    3   28 1
    31    4   29 1
    32   10   30 1
    33   12   31 1
    34   13   32 1
    35   16   33 1
    36   17   34 1
    37   19   35 1
    38   20   36 1
