@<TRIPOS>MOLECULE
2-phenylphthalazin-1-one
   27    29     0     0     0
SMALL
USER_CHARGES

@<TRIPOS>ATOM
      1 C1          0.7937   -7.7304    5.9870 C.ar      1 MOL        -0.1350
      2 C2          1.5341   -8.0578    4.8510 C.ar      1 MOL        -0.1242
      3 C3          1.7475   -7.1016    3.8582 C.ar      1 MOL        -0.1235
      4 C4          1.2206   -5.8180    4.0012 C.ar      1 MOL         0.0634
      5 C5          0.4803   -5.4906    5.1372 C.ar      1 MOL        -0.1235
      6 C6          0.2669   -6.4468    6.1301 C.ar      1 MOL        -0.1242
      7 N1          1.4415   -4.8282    2.9739 N.am      1 MOL        -0.1258
      8 C7          0.5472   -3.7896    2.6615 C.2       1 MOL         0.6969
      9 O1         -0.5655   -3.6098    3.1501 O.2       1 MOL        -0.6048
     10 C8          0.9721   -2.8287    1.6228 C.ar      1 MOL        -0.1400
     11 C9          0.1784   -1.7337    1.2678 C.ar      1 MOL        -0.0675
     12 C10         0.6158   -0.8512    0.2764 C.ar      1 MOL        -0.1364
     13 C11         1.8405   -1.0594   -0.3608 C.ar      1 MOL        -0.0984
     14 C12         2.6329   -2.1504   -0.0092 C.ar      1 MOL        -0.1211
     15 C13         2.1834   -3.0208    0.9821 C.ar      1 MOL        -0.1173
     16 C14         2.9736   -4.1685    1.3776 C.2       1 MOL         0.3577
     17 N2          2.6285   -5.0030    2.3011 N.2       1 MOL        -0.4251
     18 H1          0.6284   -8.4750    6.7603 H         1 MOL         0.1328
     19 H2          1.9451   -9.0571    4.7404 H         1 MOL         0.1350
     20 H3          2.3262   -7.3681    2.9772 H         1 MOL         0.1549
     21 H4          0.0649   -4.4935    5.2597 H         1 MOL         0.1549
     22 H5         -0.3088   -6.1913    7.0148 H         1 MOL         0.1350
     23 H6         -0.7786   -1.5515    1.7487 H         1 MOL         0.1621
     24 H7          0.0000   -0.0000    0.0000 H         1 MOL         0.1414
     25 H8          2.1751   -0.3705   -1.1310 H         1 MOL         0.1405
     26 H9          3.5845   -2.3082   -0.5081 H         1 MOL         0.1425
     27 H10         3.9319   -4.3371    0.8587 H         1 MOL         0.0494
@<TRIPOS>BOND
     1    1    6 ar
     2    1    2 ar
     3    2    3 ar
     4    3    4 ar
     5    4    5 ar
     6    5    6 ar
     7    4    7 1
     8    7   17 1
     9    7    8 am
    10    8    9 2
    11    8   10 1
    12   10   15 ar
    13   10   11 ar
    14   11   12 ar
    15   12   13 ar
    16   13   14 ar
    17   14   15 ar
    18   15   16 1
    19   16   17 2
    20    1   18 1
    21    2   19 1
    22    3   20 1
    23    5   21 1
    24    6   22 1
    25   11   23 1
    26   12   24 1
    27   13   25 1
    28   14   26 1
    29   16   27 1
