@<TRIPOS>MOLECULE
6-chloro-2-(4-chlorophenyl)quinoline-4-carboxylic acid
   30    32     0     0     0
SMALL
USER_CHARGES

@<TRIPOS>ATOM
      1 C1         -6.8713    2.3877   -0.3681 C.ar      1 MOL        -0.0921
      2 C2         -8.2483    2.2186   -0.5134 C.ar      1 MOL        -0.1294
      3 C3         -8.8593    2.4924   -1.7370 C.ar      1 MOL         0.0283
      4 C4         -8.0934    2.9353   -2.8154 C.ar      1 MOL        -0.1294
      5 C5         -6.7164    3.1044   -2.6700 C.ar      1 MOL        -0.0921
      6 C6         -6.1054    2.8306   -1.4464 C.ar      1 MOL        -0.1570
      7 C7         -4.6804    3.0058   -1.2959 C.ar      1 MOL         0.4679
      8 C8         -4.0902    4.2376   -1.4936 C.ar      1 MOL        -0.1747
      9 C9         -2.7151    4.3237   -1.3301 C.ar      1 MOL        -0.0702
     10 C10        -1.9747    3.1875   -0.9770 C.ar      1 MOL        -0.1084
     11 C11        -0.5812    3.2417   -0.8037 C.ar      1 MOL        -0.1120
     12 C12         0.1298    2.0977   -0.4527 C.ar      1 MOL         0.0278
     13 C13        -0.5469    0.8976   -0.2738 C.ar      1 MOL        -0.1172
     14 C14        -1.9323    0.8440   -0.4461 C.ar      1 MOL        -0.1532
     15 C15        -2.6683    1.9725   -0.7968 C.ar      1 MOL         0.3918
     16 N1         -4.0027    1.8858   -0.9548 N.ar      1 MOL        -0.6283
     17 Cl1         1.8355    2.1676   -0.2415 Cl        1 MOL        -0.0778
     18 C16        -2.1000    5.6307   -1.5412 C.2       1 MOL         0.6472
     19 O1         -1.4609    6.2600   -0.6962 O.2       1 MOL        -0.5320
     20 O2         -2.3063    6.0998   -2.8000 O.3       1 MOL        -0.5986
     21 Cl2       -10.5581    2.2839   -1.9174 Cl        1 MOL        -0.0870
     22 H1         -6.4089    2.1700    0.5917 H         1 MOL         0.1477
     23 H2         -8.8333    1.8724    0.3350 H         1 MOL         0.1506
     24 H3         -8.5561    3.1522   -3.7749 H         1 MOL         0.1506
     25 H4         -6.1336    3.4503   -3.5206 H         1 MOL         0.1477
     26 H5         -4.6788    5.1084   -1.7671 H         1 MOL         0.1653
     27 H6         -0.0392    4.1752   -0.9409 H         1 MOL         0.1699
     28 H7         -0.0128   -0.0087    0.0003 H         1 MOL         0.1551
     29 H8         -2.4390   -0.1083   -0.3002 H         1 MOL         0.1601
     30 H9         -1.8959    6.9777   -2.9523 H         1 MOL         0.4492
@<TRIPOS>BOND
     1    1    6 ar
     2    1    2 ar
     3    2    3 ar
     4    3    4 ar
     5    4    5 ar
     6    5    6 ar
     7    6    7 1
     8    7   16 ar
     9    7    8 ar
    10    8    9 ar
    11    9   10 ar
    12   10   15 ar
    13   10   11 ar
    14   11   12 ar
    15   12   13 ar
    16   13   14 ar
    17   14   15 ar
    18   15   16 ar
    19   12   17 1
    20    9   18 1
    21   18   19 2
    22   18   20 1
    23    3   21 1
    24    1   22 1
    25    2   23 1
    26    4   24 1
    27    5   25 1
    28    8   26 1
    29   11   27 1
    30   13   28 1
    31   14   29 1
    32   20   30 1
