@<TRIPOS>MOLECULE
(6~{a}~{S})-1,10-dimethoxy-6-methyl-5,6,6~{a},7-tetrahydro-4~{H}-dibenzo[de,g]quinoline-2,9-diol
   45    48     0     0     0
SMALL
USER_CHARGES

@<TRIPOS>ATOM
      1 C1          3.5803   -5.9462    2.1822 C.3       1 MOL         0.1433
      2 N1          2.3260   -6.4966    1.6574 N.3       1 MOL        -0.7037
      3 C2          1.9009   -7.6182    2.5101 C.3       1 MOL         0.1561
      4 C3          0.7429   -8.3659    1.8559 C.3       1 MOL        -0.0367
      5 C4         -0.3583   -7.4465    1.4064 C.ar      1 MOL        -0.0317
      6 C5         -1.6147   -7.9792    1.1026 C.ar      1 MOL        -0.1587
      7 C6         -2.6307   -7.1520    0.6405 C.ar      1 MOL         0.1227
      8 C7         -2.3998   -5.7863    0.4713 C.ar      1 MOL         0.0025
      9 C8         -1.1486   -5.2142    0.7640 C.ar      1 MOL         0.0201
     10 C9         -0.1163   -6.0707    1.2248 C.ar      1 MOL        -0.0921
     11 C10         1.2478   -5.4759    1.5907 C.3       1 MOL         0.2264
     12 H1          1.1222   -5.0263    2.5882 H         1 MOL         0.0387
     13 C11         1.5893   -4.3565    0.5811 C.3       1 MOL        -0.0369
     14 C12         0.4723   -3.3414    0.4836 C.ar      1 MOL        -0.0307
     15 C13        -0.8689   -3.7723    0.5747 C.ar      1 MOL        -0.0697
     16 C14        -1.8770   -2.7958    0.4823 C.ar      1 MOL        -0.0728
     17 C15        -1.5659   -1.4482    0.2795 C.ar      1 MOL        -0.0138
     18 C16        -0.2404   -1.0461    0.1637 C.ar      1 MOL         0.1308
     19 C17         0.7774   -1.9895    0.2626 C.ar      1 MOL        -0.1623
     20 O1          0.0741    0.2630   -0.0391 O.3       1 MOL        -0.4927
     21 O2         -2.5734   -0.5331    0.2062 O.3       1 MOL        -0.3453
     22 C18        -3.1114   -0.2647   -1.0867 C.3       1 MOL         0.1106
     23 O3         -3.4296   -5.0816   -0.0867 O.3       1 MOL        -0.3535
     24 C19        -3.4403   -4.9734   -1.5067 C.3       1 MOL         0.1048
     25 O4         -3.8420   -7.6994    0.3367 O.3       1 MOL        -0.4961
     26 H2          4.3470   -6.7246    2.2160 H         1 MOL         0.0362
     27 H3          3.4288   -5.5573    3.1927 H         1 MOL         0.0362
     28 H4          3.9329   -5.1326    1.5426 H         1 MOL         0.0362
     29 H5          2.7223   -8.3323    2.6490 H         1 MOL         0.0372
     30 H6          1.6117   -7.2615    3.5079 H         1 MOL         0.0372
     31 H7          1.1084   -8.9167    0.9797 H         1 MOL         0.0615
     32 H8          0.3490   -9.0991    2.5700 H         1 MOL         0.0615
     33 H9         -1.7973   -9.0447    1.2208 H         1 MOL         0.1533
     34 H10         2.5019   -3.8350    0.8893 H         1 MOL         0.0654
     35 H11         1.7655   -4.7720   -0.4200 H         1 MOL         0.0654
     36 H12        -2.9268   -3.0306    0.6196 H         1 MOL         0.1725
     37 H13         1.8139   -1.6718    0.1748 H         1 MOL         0.1532
     38 H14        -0.7332    0.7997   -0.0815 H         1 MOL         0.4341
     39 H15        -3.9018    0.4794   -0.9949 H         1 MOL         0.0411
     40 H16        -3.5038   -1.1901   -1.5072 H         1 MOL         0.0411
     41 H17        -2.3130    0.1202   -1.7200 H         1 MOL         0.0411
     42 H18        -4.3088   -4.3907   -1.8136 H         1 MOL         0.0448
     43 H19        -3.4787   -5.9728   -1.9405 H         1 MOL         0.0448
     44 H20        -2.5275   -4.4689   -1.8233 H         1 MOL         0.0448
     45 H21        -4.4516   -7.0112    0.0284 H         1 MOL         0.4329
@<TRIPOS>BOND
     1    1    2 1
     2    2   11 1
     3    2    3 1
     4    3    4 1
     5    4    5 1
     6    5   10 ar
     7    5    6 ar
     8    6    7 ar
     9    7    8 ar
    10    8    9 ar
    11    9   15 1
    12    9   10 ar
    13   10   11 1
    14   11   12 1
    15   11   13 1
    16   13   14 1
    17   14   19 ar
    18   14   15 ar
    19   15   16 ar
    20   16   17 ar
    21   17   18 ar
    22   18   19 ar
    23   18   20 1
    24   17   21 1
    25   21   22 1
    26    8   23 1
    27   23   24 1
    28    7   25 1
    29    1   26 1
    30    1   27 1
    31    1   28 1
    32    3   29 1
    33    3   30 1
    34    4   31 1
    35    4   32 1
    36    6   33 1
    37   13   34 1
    38   13   35 1
    39   16   36 1
    40   19   37 1
    41   20   38 1
    42   22   39 1
    43   22   40 1
    44   22   41 1
    45   24   42 1
    46   24   43 1
    47   24   44 1
    48   25   45 1
