@<TRIPOS>MOLECULE
4-(pyrrol-1-ylmethyl)benzoic acid
   26    27     0     0     0
SMALL
USER_CHARGES

@<TRIPOS>ATOM
      1 C1          2.9525    2.2562   -2.8219 C.2       1 MOL        -0.1929
      2 C2          4.1924    1.5712   -2.7959 C.2       1 MOL        -0.1929
      3 C3          3.9469    0.2931   -2.3448 C.2       1 MOL        -0.1595
      4 N1          2.6030    0.1858   -2.0984 N.pl3     1 MOL        -0.0722
      5 C4          1.9870    1.3757   -2.3858 C.2       1 MOL        -0.1595
      6 C5          1.9301   -1.0136   -1.6031 C.3       1 MOL         0.0799
      7 C6          1.8851   -1.0363   -0.1124 C.ar      1 MOL        -0.0812
      8 C7          2.9210   -1.6309    0.6081 C.ar      1 MOL        -0.1289
      9 C8          2.8783   -1.6520    2.0022 C.ar      1 MOL        -0.0695
     10 C9          1.7997   -1.0786    2.6757 C.ar      1 MOL        -0.1282
     11 C10         0.7638   -0.4841    1.9551 C.ar      1 MOL        -0.0695
     12 C11         0.8066   -0.4630    0.5610 C.ar      1 MOL        -0.1289
     13 C12         1.7553   -1.1010    4.1293 C.2       1 MOL         0.6514
     14 O1          2.6145   -1.5986    4.8642 O.2       1 MOL        -0.5474
     15 O2          0.6392   -0.4997    4.6251 O.3       1 MOL        -0.6121
     16 H1          2.7810    3.2794   -3.1253 H         1 MOL         0.1512
     17 H2          5.1594    1.9658   -3.0744 H         1 MOL         0.1512
     18 H3          4.6140   -0.5424   -2.1796 H         1 MOL         0.1618
     19 H4          0.9199    1.4979   -2.2577 H         1 MOL         0.1618
     20 H5          2.4581   -1.8906   -1.9968 H         1 MOL         0.0678
     21 H6          0.9203   -1.0410   -2.0304 H         1 MOL         0.0678
     22 H7          3.7653   -2.0798    0.0916 H         1 MOL         0.1411
     23 H8          3.6905   -2.1181    2.5539 H         1 MOL         0.1601
     24 H9         -0.0812   -0.0346    2.4698 H         1 MOL         0.1601
     25 H10        -0.0050    0.0024    0.0078 H         1 MOL         0.1411
     26 H11         0.6003   -0.5087    5.6053 H         1 MOL         0.4475
@<TRIPOS>BOND
     1    1    5 2
     2    1    2 1
     3    2    3 2
     4    3    4 1
     5    4    5 1
     6    4    6 1
     7    6    7 1
     8    7   12 ar
     9    7    8 ar
    10    8    9 ar
    11    9   10 ar
    12   10   11 ar
    13   11   12 ar
    14   10   13 1
    15   13   14 2
    16   13   15 1
    17    1   16 1
    18    2   17 1
    19    3   18 1
    20    5   19 1
    21    6   20 1
    22    6   21 1
    23    8   22 1
    24    9   23 1
    25   11   24 1
    26   12   25 1
    27   15   26 1
