@<TRIPOS>MOLECULE
6-oxo-~{N}-(2-phenylphenyl)-1~{H}-pyridazine-3-carboxamide
   35    37     0     0     0
SMALL
USER_CHARGES

@<TRIPOS>ATOM
      1 C1          3.6417   -0.7481   -4.3238 C.ar      1 MOL        -0.1244
      2 C2          4.2673    0.4099   -3.8619 C.ar      1 MOL        -0.1336
      3 C3          5.2943    0.3204   -2.9223 C.ar      1 MOL        -0.1186
      4 C4          5.6958   -0.9271   -2.4446 C.ar      1 MOL        -0.0560
      5 C5          5.0702   -2.0851   -2.9065 C.ar      1 MOL        -0.1186
      6 C6          4.0432   -1.9956   -3.8461 C.ar      1 MOL        -0.1336
      7 C7          6.7639   -1.0207   -1.4677 C.ar      1 MOL        -0.0931
      8 C8          8.0770   -1.1465   -1.9212 C.ar      1 MOL        -0.0901
      9 C9          9.1252   -1.2386   -1.0055 C.ar      1 MOL        -0.1567
     10 C10         8.8604   -1.2050    0.3635 C.ar      1 MOL        -0.1011
     11 C11         7.5472   -1.0793    0.8170 C.ar      1 MOL        -0.1601
     12 C12         6.4990   -0.9871   -0.0986 C.ar      1 MOL         0.0775
     13 N1          5.1770   -0.8605    0.3934 N.am      1 MOL        -0.4575
     14 C13         4.7777   -0.8147    1.7181 C.2       1 MOL         0.6168
     15 O1          5.4646   -0.8723    2.7307 O.2       1 MOL        -0.5599
     16 C14         3.3037   -0.6746    1.8452 C.2       1 MOL         0.2583
     17 C15         2.5307   -1.9208    1.9085 C.2       1 MOL        -0.1483
     18 C16         1.2107   -1.7806    2.0211 C.2       1 MOL        -0.2113
     19 C17         0.6110   -0.4287    2.0753 C.2       1 MOL         0.6615
     20 O2         -0.6072   -0.3018    2.1800 O.2       1 MOL        -0.6014
     21 N2          1.4858    0.6327    2.0036 N.am      1 MOL        -0.2831
     22 N3          2.8339    0.5259    1.8881 N.2       1 MOL        -0.3754
     23 H1          2.8432   -0.6788   -5.0566 H         1 MOL         0.1344
     24 H2          3.9562    1.3815   -4.2344 H         1 MOL         0.1354
     25 H3          5.7731    1.2317   -2.5719 H         1 MOL         0.1404
     26 H4          5.3719   -3.0651   -2.5440 H         1 MOL         0.1404
     27 H5          3.5573   -2.8974   -4.2069 H         1 MOL         0.1354
     28 H6          8.3014   -1.1744   -2.9849 H         1 MOL         0.1389
     29 H7         10.1477   -1.3367   -1.3584 H         1 MOL         0.1357
     30 H8          9.6766   -1.2769    1.0764 H         1 MOL         0.1370
     31 H9          7.3541   -1.0544    1.8866 H         1 MOL         0.1739
     32 H10         4.4561   -0.7975   -0.3227 H         1 MOL         0.3351
     33 H11         3.0169   -2.8859    1.8671 H         1 MOL         0.1632
     34 H12         0.5515   -2.6388    2.0761 H         1 MOL         0.1745
     35 H13         1.1405    1.5866    2.0346 H         1 MOL         0.3643
@<TRIPOS>BOND
     1    1    6 ar
     2    1    2 ar
     3    2    3 ar
     4    3    4 ar
     5    4    5 ar
     6    5    6 ar
     7    4    7 1
     8    7   12 ar
     9    7    8 ar
    10    8    9 ar
    11    9   10 ar
    12   10   11 ar
    13   11   12 ar
    14   12   13 1
    15   13   14 am
    16   14   15 2
    17   14   16 1
    18   16   22 2
    19   16   17 1
    20   17   18 2
    21   18   19 1
    22   19   20 2
    23   19   21 am
    24   21   22 1
    25    1   23 1
    26    2   24 1
    27    3   25 1
    28    5   26 1
    29    6   27 1
    30    8   28 1
    31    9   29 1
    32   10   30 1
    33   11   31 1
    34   13   32 1
    35   17   33 1
    36   18   34 1
    37   21   35 1
