@<TRIPOS>MOLECULE
7-chloro-4-methoxy-quinoline-3-carboxylic acid
   24    25     0     0     0
SMALL
USER_CHARGES

@<TRIPOS>ATOM
      1 C1         -1.6464    5.8176   -2.8362 C.3       1 MOL         0.1227
      2 O1         -2.0986    5.5286   -1.5185 O.3       1 MOL        -0.3348
      3 C2         -2.7151    4.3237   -1.3301 C.ar      1 MOL         0.2161
      4 C3         -1.9747    3.1875   -0.9770 C.ar      1 MOL        -0.1838
      5 C4         -0.5812    3.2417   -0.8037 C.ar      1 MOL        -0.0814
      6 C5          0.1298    2.0977   -0.4527 C.ar      1 MOL        -0.1302
      7 C6         -0.5469    0.8976   -0.2738 C.ar      1 MOL         0.0398
      8 C7         -1.9323    0.8440   -0.4461 C.ar      1 MOL        -0.1748
      9 C8         -2.6683    1.9725   -0.7968 C.ar      1 MOL         0.4326
     10 N1         -4.0027    1.8858   -0.9548 N.ar      1 MOL        -0.6647
     11 C9         -4.6804    3.0058   -1.2959 C.ar      1 MOL         0.4701
     12 C10        -4.0902    4.2376   -1.4936 C.ar      1 MOL        -0.2763
     13 C11        -4.9019    5.3878   -1.8592 C.2       1 MOL         0.6575
     14 O2         -4.6515    6.5621   -1.5688 O.2       1 MOL        -0.5270
     15 O3         -6.0037    5.0396   -2.5787 O.3       1 MOL        -0.6118
     16 Cl1         0.3215   -0.5239    0.1592 Cl        1 MOL        -0.0784
     17 H1         -1.1750    6.8033   -2.8525 H         1 MOL         0.0493
     18 H2         -2.4937    5.7957   -3.5262 H         1 MOL         0.0493
     19 H3         -0.9160    5.0620   -3.1351 H         1 MOL         0.0493
     20 H4         -0.0316    4.1704   -0.9383 H         1 MOL         0.1551
     21 H5          1.2069    2.1584   -0.3223 H         1 MOL         0.1553
     22 H6         -2.4529   -0.1022   -0.3028 H         1 MOL         0.1706
     23 H7         -5.7518    2.8674   -1.4062 H         1 MOL         0.0472
     24 H8         -6.5577    5.8089   -2.8311 H         1 MOL         0.4483
@<TRIPOS>BOND
     1    1    2 1
     2    2    3 1
     3    3   12 ar
     4    3    4 ar
     5    4    9 ar
     6    4    5 ar
     7    5    6 ar
     8    6    7 ar
     9    7    8 ar
    10    8    9 ar
    11    9   10 ar
    12   10   11 ar
    13   11   12 ar
    14   12   13 1
    15   13   14 2
    16   13   15 1
    17    7   16 1
    18    1   17 1
    19    1   18 1
    20    1   19 1
    21    5   20 1
    22    6   21 1
    23    8   22 1
    24   11   23 1
    25   15   24 1
