@<TRIPOS>MOLECULE
quinoxaline-5-carboxylic acid
   19    20     0     0     0
SMALL
USER_CHARGES

@<TRIPOS>ATOM
      1 C1          1.9338   -0.9390   -0.0015 C.ar      1 MOL        -0.1436
      2 C2          0.8925   -0.2271    0.5751 C.ar      1 MOL        -0.0546
      3 C3          0.9988    0.1958    1.8989 C.ar      1 MOL        -0.1564
      4 C4          2.1323   -0.0820    2.6593 C.ar      1 MOL         0.3189
      5 C5          3.1886   -0.8044    2.0745 C.ar      1 MOL         0.2712
      6 C6          3.0723   -1.2223    0.7509 C.ar      1 MOL        -0.1248
      7 N1          4.2972   -1.0899    2.7798 N.ar      1 MOL        -0.6177
      8 C7          4.3566   -0.6622    4.0538 C.ar      1 MOL         0.2949
      9 C8          3.3285    0.0410    4.6230 C.ar      1 MOL         0.3059
     10 N2          2.2113    0.3367    3.9346 N.ar      1 MOL        -0.6041
     11 C9         -0.1177    0.9402    2.4710 C.2       1 MOL         0.6531
     12 O1         -0.4411    0.9352    3.6606 O.2       1 MOL        -0.5143
     13 O2         -0.7882    1.6644    1.5359 O.3       1 MOL        -0.6181
     14 H1          1.8645   -1.2746   -1.0316 H         1 MOL         0.1458
     15 H2          0.0042   -0.0072   -0.0113 H         1 MOL         0.1609
     16 H3          3.8817   -1.7815    0.2857 H         1 MOL         0.1582
     17 H4          5.2594   -0.9060    4.5988 H         1 MOL         0.0380
     18 H5          3.3656    0.3895    5.6472 H         1 MOL         0.0408
     19 H6         -1.5408    2.1696    1.9110 H         1 MOL         0.4458
@<TRIPOS>BOND
     1    1    6 ar
     2    1    2 ar
     3    2    3 ar
     4    3    4 ar
     5    4   10 ar
     6    4    5 ar
     7    5    6 ar
     8    5    7 ar
     9    7    8 ar
    10    8    9 ar
    11    9   10 ar
    12    3   11 1
    13   11   12 2
    14   11   13 1
    15    1   14 1
    16    2   15 1
    17    6   16 1
    18    8   17 1
    19    9   18 1
    20   13   19 1
