@<TRIPOS>MOLECULE
4-[(4-fluorophenyl)carbamoylamino]benzoic acid
   31    32     0     0     0
SMALL
USER_CHARGES

@<TRIPOS>ATOM
      1 C1          0.6014   -1.6896    1.1950 C.ar      1 MOL        -0.0375
      2 C2          1.6377   -2.2837    1.9153 C.ar      1 MOL        -0.1967
      3 C3          2.8783   -1.6520    2.0022 C.ar      1 MOL         0.1234
      4 C4          3.0825   -0.4261    1.3689 C.ar      1 MOL        -0.1967
      5 C5          2.0462    0.1681    0.6487 C.ar      1 MOL        -0.0375
      6 C6          0.8056   -0.4637    0.5618 C.ar      1 MOL        -0.1718
      7 C7         -0.2759    0.1572   -0.1865 C.2       1 MOL         0.6553
      8 O1         -1.4107   -0.3107   -0.3262 O.2       1 MOL        -0.5556
      9 O2          0.0892    1.3465   -0.7390 O.3       1 MOL        -0.6125
     10 N1          3.9145   -2.2466    2.7225 N.am      1 MOL        -0.4827
     11 C8          3.9092   -3.4741    3.4291 C.2       1 MOL         0.7997
     12 O3          2.9445   -4.2276    3.5128 O.2       1 MOL        -0.6032
     13 N2          5.1660   -3.6960    4.0145 N.am      1 MOL        -0.4801
     14 C9          5.5783   -4.7978    4.8005 C.ar      1 MOL         0.0692
     15 C10         6.8788   -4.8488    5.3024 C.ar      1 MOL        -0.1478
     16 C11         7.2855   -5.9354    6.0767 C.ar      1 MOL        -0.1359
     17 C12         6.3917   -6.9710    6.3492 C.ar      1 MOL         0.0982
     18 C13         5.0912   -6.9200    5.8473 C.ar      1 MOL        -0.1359
     19 C14         4.6845   -5.8334    5.0730 C.ar      1 MOL        -0.1478
     20 F1          6.7830   -8.0157    7.0905 F         1 MOL        -0.1396
     21 H1         -0.3614   -2.1905    1.1352 H         1 MOL         0.1602
     22 H2          1.4675   -3.2396    2.4041 H         1 MOL         0.1590
     23 H3          4.0450    0.0755    1.4296 H         1 MOL         0.1590
     24 H4          2.2167    1.1239    0.1598 H         1 MOL         0.1602
     25 H5         -0.6341    1.7740   -1.2455 H         1 MOL         0.4461
     26 H6          4.7976   -1.7255    2.7432 H         1 MOL         0.3173
     27 H7          5.8660   -2.9761    3.8538 H         1 MOL         0.3154
     28 H8          7.5838   -4.0473    5.0966 H         1 MOL         0.1570
     29 H9          8.2979   -5.9760    6.4677 H         1 MOL         0.1520
     30 H10         4.3960   -7.7269    6.0599 H         1 MOL         0.1520
     31 H11         3.6686   -5.8043    4.6871 H         1 MOL         0.1570
@<TRIPOS>BOND
     1    1    6 ar
     2    1    2 ar
     3    2    3 ar
     4    3    4 ar
     5    4    5 ar
     6    5    6 ar
     7    6    7 1
     8    7    8 2
     9    7    9 1
    10    3   10 1
    11   10   11 am
    12   11   12 2
    13   11   13 am
    14   13   14 1
    15   14   19 ar
    16   14   15 ar
    17   15   16 ar
    18   16   17 ar
    19   17   18 ar
    20   18   19 ar
    21   17   20 1
    22    1   21 1
    23    2   22 1
    24    4   23 1
    25    5   24 1
    26    9   25 1
    27   10   26 1
    28   13   27 1
    29   15   28 1
    30   16   29 1
    31   18   30 1
    32   19   31 1
