@<TRIPOS>MOLECULE
(2~{S})-1-(isopropylamino)-3-(1-naphthyloxy)propan-2-ol
   40    41     0     0     0
SMALL
USER_CHARGES

@<TRIPOS>ATOM
      1 C1          1.3178   -2.7932    0.3353 C.3       1 MOL        -0.0963
      2 C2          0.0999   -3.6456    0.0098 C.3       1 MOL         0.1860
      3 C3         -1.0946   -2.7919   -0.3902 C.3       1 MOL        -0.0963
      4 N1         -0.2561   -4.4358    1.1806 N.3       1 MOL        -0.8522
      5 C4         -1.0725   -5.5691    0.8102 C.3       1 MOL         0.1315
      6 C5         -1.4507   -6.4041    2.0336 C.3       1 MOL         0.1402
      7 H1         -0.5380   -6.7724    2.5170 H         1 MOL         0.0522
      8 C6         -2.2885   -5.6376    3.0525 C.3       1 MOL         0.1265
      9 O1         -3.4926   -5.2086    2.4278 O.3       1 MOL        -0.3140
     10 C7         -4.5926   -5.0907    3.2288 C.ar      1 MOL         0.1370
     11 C8         -4.5286   -4.1995    4.3004 C.ar      1 MOL        -0.2150
     12 C9         -5.6244   -4.0444    5.1441 C.ar      1 MOL        -0.0956
     13 C10        -6.7885   -4.7798    4.9196 C.ar      1 MOL        -0.1498
     14 C11        -6.8707   -5.6813    3.8458 C.ar      1 MOL        -0.0146
     15 C12        -5.7563   -5.8391    2.9878 C.ar      1 MOL        -0.0518
     16 C13        -5.8384   -6.7405    1.9140 C.ar      1 MOL        -0.0918
     17 C14        -7.0025   -7.4759    1.6895 C.ar      1 MOL        -0.1416
     18 C15        -8.0983   -7.3209    2.5332 C.ar      1 MOL        -0.1162
     19 C16        -8.0343   -6.4298    3.6048 C.ar      1 MOL        -0.1308
     20 O2         -2.1877   -7.5557    1.6211 O.3       1 MOL        -0.5876
     21 H2          2.1680   -3.4210    0.6211 H         1 MOL         0.0406
     22 H3          1.6184   -2.1811   -0.5224 H         1 MOL         0.0406
     23 H4          1.1045   -2.1123    1.1667 H         1 MOL         0.0406
     24 H5          0.3428   -4.3374   -0.8041 H         1 MOL         0.0181
     25 H6         -1.9614   -3.4209   -0.6209 H         1 MOL         0.0406
     26 H7         -0.8655   -2.1920   -1.2771 H         1 MOL         0.0406
     27 H8         -1.3878   -2.1106    0.4163 H         1 MOL         0.0406
     28 H9          0.5953   -4.7688    1.6321 H         1 MOL         0.3683
     29 H10        -0.5061   -6.1812    0.1002 H         1 MOL         0.0414
     30 H11        -1.9738   -5.2120    0.3013 H         1 MOL         0.0414
     31 H12        -1.7574   -4.7502    3.4105 H         1 MOL         0.0519
     32 H13        -2.5645   -6.2696    3.9026 H         1 MOL         0.0519
     33 H14        -3.6256   -3.6227    4.4821 H         1 MOL         0.1367
     34 H15        -5.5740   -3.3503    5.9780 H         1 MOL         0.1314
     35 H16        -7.6327   -4.6429    5.5920 H         1 MOL         0.1330
     36 H17        -5.0004   -6.8860    1.2362 H         1 MOL         0.1519
     37 H18        -7.0536   -8.1697    0.8553 H         1 MOL         0.1330
     38 H19        -9.0038   -7.8942    2.3582 H         1 MOL         0.1308
     39 H20        -8.9028   -6.3252    4.2520 H         1 MOL         0.1321
     40 H21        -1.6058   -8.0549    1.0286 H         1 MOL         0.4149
@<TRIPOS>BOND
     1    1    2 1
     2    2    3 1
     3    2    4 1
     4    4    5 1
     5    5    6 1
     6    6    7 1
     7    6    8 1
     8    8    9 1
     9    9   10 1
    10   10   15 ar
    11   10   11 ar
    12   11   12 ar
    13   12   13 ar
    14   13   14 ar
    15   14   19 ar
    16   14   15 ar
    17   15   16 ar
    18   16   17 ar
    19   17   18 ar
    20   18   19 ar
    21    6   20 1
    22    1   21 1
    23    1   22 1
    24    1   23 1
    25    2   24 1
    26    3   25 1
    27    3   26 1
    28    3   27 1
    29    4   28 1
    30    5   29 1
    31    5   30 1
    32    8   31 1
    33    8   32 1
    34   11   33 1
    35   12   34 1
    36   13   35 1
    37   16   36 1
    38   17   37 1
    39   18   38 1
    40   19   39 1
    41   20   40 1
