@<TRIPOS>MOLECULE
1-[4-[4-[[(2~{R},4~{S})-2-(2,4-dichlorophenyl)-2-(imidazol-1-ylmethyl)-1,3-dioxolan-4-yl]methoxy]phenyl]piperazin-1-yl]ethanone
   64    68     0     0     0
SMALL
USER_CHARGES

@<TRIPOS>ATOM
      1 C1         -0.2641    5.0532   11.9326 C.3       1 MOL        -0.1751
      2 C2         -0.6109    5.6121   10.5744 C.2       1 MOL         0.6675
      3 O1         -1.2023    6.6910   10.4920 O.2       1 MOL        -0.6055
      4 N1         -0.2304    4.8414    9.4752 N.am      1 MOL        -0.4860
      5 C3          0.4799    3.5645    9.5750 C.3       1 MOL         0.0840
      6 C4          0.3168    2.6969    8.3268 C.3       1 MOL         0.2237
      7 N2          0.7082    3.4371    7.1245 N.pl3     1 MOL        -0.7251
      8 C5          0.5348    4.8925    7.1207 C.3       1 MOL         0.2237
      9 C6         -0.5355    5.3112    8.1263 C.3       1 MOL         0.0840
     10 C7          1.1959    2.7766    5.9994 C.ar      1 MOL         0.1650
     11 C8          0.7723    1.4784    5.7145 C.ar      1 MOL        -0.1576
     12 C9          1.2604    0.8171    4.5876 C.ar      1 MOL        -0.1412
     13 C10         2.1721    1.4538    3.7456 C.ar      1 MOL         0.0795
     14 C11         2.5957    2.7519    4.0305 C.ar      1 MOL        -0.1412
     15 C12         2.1076    3.4133    5.1575 C.ar      1 MOL        -0.1576
     16 O2          2.6494    0.8081    2.6468 O.3       1 MOL        -0.3332
     17 C13         1.7891   -0.1496    2.0314 C.3       1 MOL         0.1338
     18 C14         2.0957   -0.1981    0.5501 C.3       1 MOL         0.1120
     19 H1          3.1403   -0.4885    0.3845 H         1 MOL         0.0809
     20 C15         1.1621   -1.0771   -0.2408 C.3       1 MOL         0.1125
     21 O3          1.3058   -0.5869   -1.5740 O.3       1 MOL        -0.4363
     22 C16         1.6185    0.8138   -1.4339 C.3       1 MOL         0.3765
     23 O4          1.9001    1.0861   -0.0458 O.3       1 MOL        -0.4236
     24 C17         0.3884    1.6292   -1.8310 C.3       1 MOL         0.0398
     25 N3         -0.7665    1.3257   -0.9957 N.pl3     1 MOL        -0.2102
     26 C18        -1.1160    1.9466    0.1773 C.2       1 MOL        -0.2530
     27 C19        -2.2655    1.4050    0.7024 C.2       1 MOL         0.2910
     28 N4         -2.6250    0.4250   -0.1793 N.2       1 MOL        -0.6709
     29 C20        -1.6953    0.4142   -1.1816 C.2       1 MOL         0.4049
     30 C21         2.8056    1.1836   -2.3108 C.ar      1 MOL        -0.1142
     31 C22         3.0027    0.4698   -3.4929 C.ar      1 MOL        -0.0759
     32 C23         4.0797    0.7795   -4.3233 C.ar      1 MOL        -0.1295
     33 C24         4.9598    1.8030   -3.9716 C.ar      1 MOL         0.0342
     34 C25         4.7627    2.5167   -2.7895 C.ar      1 MOL        -0.1388
     35 C26         3.6857    2.2070   -1.9591 C.ar      1 MOL         0.0526
     36 Cl1         3.4713    3.1124   -0.5051 Cl        1 MOL        -0.0768
     37 Cl2         6.2874    2.1862   -4.9976 Cl        1 MOL        -0.0807
     38 H2         -1.0766    4.4216   12.3017 H         1 MOL         0.0665
     39 H3         -0.0978    5.8649   12.6463 H         1 MOL         0.0665
     40 H4          0.6487    4.4538   11.8747 H         1 MOL         0.0665
     41 H5          1.5434    3.7419    9.7605 H         1 MOL         0.0569
     42 H6          0.0720    3.0455   10.4510 H         1 MOL         0.0569
     43 H7          0.9397    1.7980    8.4190 H         1 MOL         0.0456
     44 H8         -0.7276    2.3730    8.2463 H         1 MOL         0.0456
     45 H9          1.4748    5.4033    7.3635 H         1 MOL         0.0456
     46 H10         0.2443    5.2052    6.1104 H         1 MOL         0.0456
     47 H11        -0.6068    6.4045    8.1783 H         1 MOL         0.0569
     48 H12        -1.5143    4.9346    7.8107 H         1 MOL         0.0569
     49 H13         0.0619    0.9729    6.3640 H         1 MOL         0.1378
     50 H14         0.9268   -0.1942    4.3710 H         1 MOL         0.1439
     51 H15         3.3061    3.2531    3.3784 H         1 MOL         0.1439
     52 H16         2.4442    4.4248    5.3701 H         1 MOL         0.1378
     53 H17         1.9657   -1.1214    2.4966 H         1 MOL         0.0576
     54 H18         0.7547    0.1540    2.2044 H         1 MOL         0.0576
     55 H19         1.4208   -2.1379   -0.1929 H         1 MOL         0.0727
     56 H20         0.1150   -0.9475    0.0547 H         1 MOL         0.0727
     57 H21         0.1142    1.4302   -2.8727 H         1 MOL         0.0809
     58 H22         0.5940    2.7019   -1.7471 H         1 MOL         0.0809
     59 H23        -0.4996    2.7506    0.5573 H         1 MOL         0.1769
     60 H24        -2.8175    1.6438    1.5971 H         1 MOL         0.0423
     61 H25        -1.7372   -0.2708   -2.0185 H         1 MOL         0.0636
     62 H26         2.3230   -0.3294   -3.7768 H         1 MOL         0.1677
     63 H27         4.2213    0.2150   -5.2413 H         1 MOL         0.1571
     64 H28         5.4495    3.3158   -2.5178 H         1 MOL         0.1642
@<TRIPOS>BOND
     1    1    2 1
     2    2    3 2
     3    2    4 am
     4    4    9 1
     5    4    5 1
     6    5    6 1
     7    6    7 1
     8    7    8 1
     9    8    9 1
    10    7   10 1
    11   10   15 ar
    12   10   11 ar
    13   11   12 ar
    14   12   13 ar
    15   13   14 ar
    16   14   15 ar
    17   13   16 1
    18   16   17 1
    19   17   18 1
    20   18   19 1
    21   18   23 1
    22   18   20 1
    23   20   21 1
    24   21   22 1
    25   22   23 1
    26   22   24 1
    27   24   25 1
    28   25   29 1
    29   25   26 1
    30   26   27 2
    31   27   28 1
    32   28   29 2
    33   22   30 1
    34   30   35 ar
    35   30   31 ar
    36   31   32 ar
    37   32   33 ar
    38   33   34 ar
    39   34   35 ar
    40   35   36 1
    41   33   37 1
    42    1   38 1
    43    1   39 1
    44    1   40 1
    45    5   41 1
    46    5   42 1
    47    6   43 1
    48    6   44 1
    49    8   45 1
    50    8   46 1
    51    9   47 1
    52    9   48 1
    53   11   49 1
    54   12   50 1
    55   14   51 1
    56   15   52 1
    57   17   53 1
    58   17   54 1
    59   20   55 1
    60   20   56 1
    61   24   57 1
    62   24   58 1
    63   26   59 1
    64   27   60 1
    65   29   61 1
    66   31   62 1
    67   32   63 1
    68   34   64 1
