@<TRIPOS>MOLECULE
5,5-diphenylimidazolidine-2,4-dione
   31    33     0     0     0
SMALL
USER_CHARGES

@<TRIPOS>ATOM
      1 C1          0.1517    4.8755   -1.3201 C.ar      1 MOL        -0.1152
      2 C2         -0.6779    4.3301   -0.3402 C.ar      1 MOL        -0.1321
      3 C3         -0.2652    3.2072    0.3769 C.ar      1 MOL        -0.1051
      4 C4          0.9770    2.6297    0.1143 C.ar      1 MOL        -0.1069
      5 C5          1.8066    3.1751   -0.8655 C.ar      1 MOL        -0.1051
      6 C6          1.3939    4.2981   -1.5827 C.ar      1 MOL        -0.1321
      7 C7          1.4295    1.3963    0.9022 C.3       1 MOL         0.1602
      8 C8          2.9511    1.1219    0.8485 C.2       1 MOL         0.7047
      9 O1          3.8160    1.8296    1.3513 O.2       1 MOL        -0.5725
     10 N1          3.1827   -0.0439    0.1607 N.am      1 MOL        -0.6128
     11 C9          2.0095   -0.6234   -0.2512 C.2       1 MOL         0.8212
     12 O2          1.8868   -1.6682   -0.8753 O.2       1 MOL        -0.6242
     13 N2          0.9782    0.2062    0.1805 N.am      1 MOL        -0.5918
     14 C10         0.9864    1.4232    2.3699 C.ar      1 MOL        -0.1069
     15 C11         1.4035    2.4596    3.2052 C.ar      1 MOL        -0.1051
     16 C12         1.0007    2.4842    4.5404 C.ar      1 MOL        -0.1321
     17 C13         0.1809    1.4724    5.0404 C.ar      1 MOL        -0.1152
     18 C14        -0.2360    0.4360    4.2050 C.ar      1 MOL        -0.1321
     19 C15         0.1667    0.4114    2.8698 C.ar      1 MOL        -0.1051
     20 H1         -0.1689    5.7507   -1.8777 H         1 MOL         0.1359
     21 H2         -1.6446    4.7801   -0.1348 H         1 MOL         0.1373
     22 H3         -0.9182    2.7890    1.1384 H         1 MOL         0.1435
     23 H4          2.7761    2.7317   -1.0770 H         1 MOL         0.1435
     24 H5          2.0404    4.7233   -2.3448 H         1 MOL         0.1373
     25 H6          4.1034   -0.4273   -0.0197 H         1 MOL         0.3590
     26 H7         -0.0010    0.0013    0.0039 H         1 MOL         0.3545
     27 H8          2.0426    3.2517    2.8241 H         1 MOL         0.1435
     28 H9          1.3253    3.2913    5.1907 H         1 MOL         0.1373
     29 H10        -0.1329    1.4913    6.0800 H         1 MOL         0.1359
     30 H11        -0.8738   -0.3520    4.5944 H         1 MOL         0.1373
     31 H12        -0.1636   -0.4000    2.2267 H         1 MOL         0.1435
@<TRIPOS>BOND
     1    1    6 ar
     2    1    2 ar
     3    2    3 ar
     4    3    4 ar
     5    4    5 ar
     6    5    6 ar
     7    4    7 1
     8    7   13 1
     9    7    8 1
    10    8    9 2
    11    8   10 am
    12   10   11 am
    13   11   12 2
    14   11   13 am
    15    7   14 1
    16   14   19 ar
    17   14   15 ar
    18   15   16 ar
    19   16   17 ar
    20   17   18 ar
    21   18   19 ar
    22    1   20 1
    23    2   21 1
    24    3   22 1
    25    5   23 1
    26    6   24 1
    27   10   25 1
    28   13   26 1
    29   15   27 1
    30   16   28 1
    31   17   29 1
    32   18   30 1
    33   19   31 1
