@<TRIPOS>MOLECULE
5,6-diphenyl-3-(2-pyridyl)-1,2,4-triazine
   38    41     0     0     0
SMALL
USER_CHARGES

@<TRIPOS>ATOM
      1 C1          1.8869   -1.0360   -0.1124 C.ar      1 MOL        -0.1183
      2 C2          0.6577   -1.0556    0.5467 C.ar      1 MOL        -0.1301
      3 C3          0.6141   -1.0769    1.9408 C.ar      1 MOL        -0.0979
      4 C4          1.7997   -1.0786    2.6757 C.ar      1 MOL        -0.1501
      5 C5          3.0289   -1.0590    2.0165 C.ar      1 MOL        -0.0979
      6 C6          3.0725   -1.0377    0.6225 C.ar      1 MOL        -0.1301
      7 C7          1.7549   -1.1005    4.1216 C.ar      1 MOL         0.4006
      8 C8          1.7252    0.0323    4.8937 C.ar      1 MOL         0.2866
      9 N1          1.6872   -0.0490    6.2361 N.ar      1 MOL        -0.2623
     10 N2          1.6786   -1.2688    6.8128 N.ar      1 MOL        -0.2901
     11 C9          1.7085   -2.3465    6.0045 C.ar      1 MOL         0.5321
     12 N3          1.7470   -2.3277    4.6638 N.ar      1 MOL        -0.6510
     13 C10         1.6978   -3.6364    6.6405 C.ar      1 MOL         0.3482
     14 C11         1.7271   -4.8015    5.8911 C.ar      1 MOL        -0.1980
     15 C12         1.7148   -6.0136    6.5722 C.ar      1 MOL        -0.1086
     16 C13         1.6744   -6.0234    7.9620 C.ar      1 MOL        -0.2281
     17 C14         1.6476   -4.8036    8.6187 C.ar      1 MOL         0.3883
     18 N4          1.6583   -3.6061    7.9915 N.ar      1 MOL        -0.6196
     19 C15         1.7348    1.3740    4.3626 C.ar      1 MOL        -0.1369
     20 C16         2.9470    2.0285    4.1433 C.ar      1 MOL        -0.0994
     21 C17         2.9564    3.3254    3.6299 C.ar      1 MOL        -0.1308
     22 C18         1.7537    3.9678    3.3358 C.ar      1 MOL        -0.1186
     23 C19         0.5416    3.3133    3.5550 C.ar      1 MOL        -0.1308
     24 C20         0.5322    2.0164    4.0685 C.ar      1 MOL        -0.0994
     25 H1          1.9211   -1.0177   -1.1977 H         1 MOL         0.1321
     26 H2         -0.2658   -1.0529   -0.0248 H         1 MOL         0.1368
     27 H3         -0.3514   -1.0914    2.4407 H         1 MOL         0.1384
     28 H4          3.9619   -1.0598    2.5752 H         1 MOL         0.1384
     29 H5          4.0296   -1.0208    0.1095 H         1 MOL         0.1368
     30 H6          1.7599   -4.7847    4.8065 H         1 MOL         0.1662
     31 H7          1.7355   -6.9488    6.0207 H         1 MOL         0.1426
     32 H8          1.6615   -6.9562    8.5139 H         1 MOL         0.1463
     33 H9          1.6159   -4.7560    9.7022 H         1 MOL         0.0288
     34 H10         3.8928    1.5406    4.3667 H         1 MOL         0.1366
     35 H11         3.9004    3.8343    3.4584 H         1 MOL         0.1347
     36 H12         1.7615    4.9776    2.9359 H         1 MOL         0.1336
     37 H13        -0.3946    3.8143    3.3268 H         1 MOL         0.1347
     38 H14        -0.4208    1.5200    4.2352 H         1 MOL         0.1366
@<TRIPOS>BOND
     1    1    6 ar
     2    1    2 ar
     3    2    3 ar
     4    3    4 ar
     5    4    5 ar
     6    5    6 ar
     7    4    7 1
     8    7   12 ar
     9    7    8 ar
    10    8    9 ar
    11    9   10 ar
    12   10   11 ar
    13   11   12 ar
    14   11   13 1
    15   13   18 ar
    16   13   14 ar
    17   14   15 ar
    18   15   16 ar
    19   16   17 ar
    20   17   18 ar
    21    8   19 1
    22   19   24 ar
    23   19   20 ar
    24   20   21 ar
    25   21   22 ar
    26   22   23 ar
    27   23   24 ar
    28    1   25 1
    29    2   26 1
    30    3   27 1
    31    5   28 1
    32    6   29 1
    33   14   30 1
    34   15   31 1
    35   16   32 1
    36   17   33 1
    37   20   34 1
    38   21   35 1
    39   22   36 1
    40   23   37 1
    41   24   38 1
