@<TRIPOS>MOLECULE
2-[(2-chloroanilino)methyl]-5,6-dimethyl-4~{H}-[1,2,4]triazolo[1,5-a]pyrimidin-7-one
   35    37     0     0     0
SMALL
USER_CHARGES

@<TRIPOS>ATOM
      1 C1         -2.6296    1.2847   -0.8722 C.3       1 MOL        -0.0406
      2 C2         -1.4762    0.5059   -0.3142 C.2       1 MOL        -0.2575
      3 C3         -1.5331   -0.4811    0.6157 C.2       1 MOL         0.1864
      4 N1         -0.3877   -1.1130    1.0900 N.pl3     1 MOL        -0.7127
      5 C4          0.8449   -0.7888    0.6542 C.2       1 MOL         0.6360
      6 N2          2.0466   -1.2313    0.9445 N.2       1 MOL        -0.6953
      7 C5          2.8434   -0.4682    0.1366 C.2       1 MOL         0.5087
      8 N3          2.2136    0.4201   -0.6373 N.2       1 MOL        -0.4601
      9 N4          0.9325    0.2001   -0.2907 N.am      1 MOL        -0.0611
     10 C6         -0.1256    0.9068   -0.8446 C.2       1 MOL         0.6270
     11 O1          0.0912    1.7643   -1.6848 O.2       1 MOL        -0.5475
     12 C7          4.3036   -0.6154    0.1191 C.3       1 MOL         0.2161
     13 N5          4.9758    0.2407    1.0772 N.pl3     1 MOL        -0.7886
     14 C8          6.3481    0.2734    1.2396 C.ar      1 MOL         0.2167
     15 C9          7.1362   -0.5587    0.4445 C.ar      1 MOL        -0.2115
     16 C10         8.5239   -0.5486    0.5859 C.ar      1 MOL        -0.0789
     17 C11         9.1234    0.2934    1.5225 C.ar      1 MOL        -0.1844
     18 C12         8.3352    1.1254    2.3176 C.ar      1 MOL        -0.0742
     19 C13         6.9476    1.1154    2.1762 C.ar      1 MOL        -0.0679
     20 Cl1         6.0094    2.1614    3.1811 Cl        1 MOL        -0.1091
     21 C14        -2.8198   -0.9985    1.2037 C.3       1 MOL        -0.0784
     22 H1         -3.0162    0.7981   -1.7716 H         1 MOL         0.0553
     23 H2         -2.3137    2.2995   -1.1296 H         1 MOL         0.0553
     24 H3         -3.4344    1.3518   -0.1349 H         1 MOL         0.0553
     25 H4         -0.5276   -1.8370    1.7877 H         1 MOL         0.4819
     26 H5          4.6239   -1.6510    0.3474 H         1 MOL         0.0635
     27 H6          4.7444   -0.3794   -0.8693 H         1 MOL         0.0635
     28 H7          4.4038    0.8438    1.6526 H         1 MOL         0.4522
     29 H8          6.6808   -1.2196   -0.2887 H         1 MOL         0.1347
     30 H9          9.1376   -1.1968   -0.0328 H         1 MOL         0.1311
     31 H10        10.2038    0.3006    1.6330 H         1 MOL         0.1352
     32 H11         8.8182    1.7751    3.0432 H         1 MOL         0.1424
     33 H12        -3.1840   -1.8210    0.5961 H         1 MOL         0.0689
     34 H13        -3.5527   -0.1975    1.2192 H         1 MOL         0.0689
     35 H14        -2.6363   -1.3407    2.2177 H         1 MOL         0.0689
@<TRIPOS>BOND
     1    1    2 1
     2    2   10 1
     3    2    3 2
     4    3    4 1
     5    4    5 1
     6    5    9 1
     7    5    6 2
     8    6    7 1
     9    7    8 2
    10    8    9 1
    11    9   10 am
    12   10   11 2
    13    7   12 1
    14   12   13 1
    15   13   14 1
    16   14   19 ar
    17   14   15 ar
    18   15   16 ar
    19   16   17 ar
    20   17   18 ar
    21   18   19 ar
    22   19   20 1
    23    3   21 1
    24    1   22 1
    25    1   23 1
    26    1   24 1
    27    4   25 1
    28   12   26 1
    29   12   27 1
    30   13   28 1
    31   15   29 1
    32   16   30 1
    33   17   31 1
    34   18   32 1
    35   21   33 1
    36   21   34 1
    37   21   35 1
