@<TRIPOS>MOLECULE
2-(2,5,7-trimethyl-1~{H}-indol-3-yl)acetic acid
   31    32     0     0     0
SMALL
USER_CHARGES

@<TRIPOS>ATOM
      1 C1          0.4151    2.3286    1.2877 C.3       1 MOL        -0.0487
      2 C2         -0.7036    1.3640    1.5041 C.ar      1 MOL        -0.0942
      3 C3         -0.7671    0.1975    0.7446 C.ar      1 MOL        -0.1136
      4 C4         -1.8022   -0.7245    0.9247 C.ar      1 MOL        -0.0855
      5 C5         -2.7685   -0.4315    1.8936 C.ar      1 MOL         0.0842
      6 C6         -2.7304    0.7292    2.6692 C.ar      1 MOL        -0.0649
      7 C7         -1.6773    1.6439    2.4698 C.ar      1 MOL        -0.0930
      8 C8         -3.8586    0.6897    3.5356 C.2       1 MOL        -0.1535
      9 C9         -4.5471   -0.4724    3.2738 C.2       1 MOL         0.0882
     10 N1         -3.8818   -1.1421    2.2822 N.pl3     1 MOL        -0.5756
     11 C10        -5.7807   -1.0228    3.8677 C.3       1 MOL        -0.0505
     12 C11        -4.2261    1.7114    4.5381 C.3       1 MOL        -0.0846
     13 C12        -3.5976    1.4221    5.8834 C.2       1 MOL         0.6155
     14 O1         -2.8750    0.4591    6.1071 O.2       1 MOL        -0.4714
     15 O2         -3.9546    2.3207    6.8351 O.3       1 MOL        -0.5929
     16 C13        -1.8400   -1.9639    0.0946 C.3       1 MOL        -0.0478
     17 H1          1.2564    2.0790    1.9413 H         1 MOL         0.0415
     18 H2          0.7558    2.3051    0.2473 H         1 MOL         0.0415
     19 H3          0.0938    3.3538    1.5000 H         1 MOL         0.0415
     20 H4          0.0004    0.0001   -0.0016 H         1 MOL         0.1303
     21 H5         -1.6216    2.5553    3.0595 H         1 MOL         0.1304
     22 H6         -4.1650   -2.0300    1.8908 H         1 MOL         0.4534
     23 H7         -6.6735   -0.6797    3.3194 H         1 MOL         0.0549
     24 H8         -5.7871   -2.1264    3.8607 H         1 MOL         0.0549
     25 H9         -5.9009   -0.7246    4.9235 H         1 MOL         0.0549
     26 H10        -5.3169    1.8076    4.6638 H         1 MOL         0.0710
     27 H11        -3.8961    2.7192    4.2355 H         1 MOL         0.0710
     28 H12        -4.5377    3.0475    6.5283 H         1 MOL         0.4180
     29 H13        -1.2889   -2.7718    0.5906 H         1 MOL         0.0417
     30 H14        -2.8716   -2.2982   -0.0742 H         1 MOL         0.0417
     31 H15        -1.3949   -1.7940   -0.8941 H         1 MOL         0.0417
@<TRIPOS>BOND
     1    1    2 1
     2    2    7 ar
     3    2    3 ar
     4    3    4 ar
     5    4    5 ar
     6    5   10 1
     7    5    6 ar
     8    6    7 ar
     9    6    8 1
    10    8    9 2
    11    9   10 1
    12    9   11 1
    13    8   12 1
    14   12   13 1
    15   13   14 2
    16   13   15 1
    17    4   16 1
    18    1   17 1
    19    1   18 1
    20    1   19 1
    21    3   20 1
    22    7   21 1
    23   10   22 1
    24   11   23 1
    25   11   24 1
    26   11   25 1
    27   12   26 1
    28   12   27 1
    29   15   28 1
    30   16   29 1
    31   16   30 1
    32   16   31 1
