@<TRIPOS>MOLECULE
~{N}-(4-ethoxyphenyl)-4-methyl-quinolin-2-amine
   39    41     0     0     0
SMALL
USER_CHARGES

@<TRIPOS>ATOM
      1 C1        -11.4823    5.1355    3.4856 C.3       1 MOL        -0.1033
      2 C2        -10.1553    5.2788    2.7712 C.3       1 MOL         0.1260
      3 O1        -10.3541    5.0695    1.3781 O.3       1 MOL        -0.3316
      4 C3         -9.3089    4.5441    0.6822 C.ar      1 MOL         0.1000
      5 C4         -9.5469    3.7490   -0.4390 C.ar      1 MOL        -0.1492
      6 C5         -8.4758    3.2106   -1.1521 C.ar      1 MOL        -0.1353
      7 C6         -7.1669    3.4671   -0.7441 C.ar      1 MOL         0.1156
      8 C7         -6.9290    4.2620    0.3771 C.ar      1 MOL        -0.1353
      9 C8         -8.0000    4.8005    1.0903 C.ar      1 MOL        -0.1492
     10 N1         -6.0848    2.9230   -1.4645 N.pl3     1 MOL        -0.7420
     11 C9         -4.6804    3.0058   -1.2959 C.ar      1 MOL         0.6677
     12 C10        -3.9003    2.9263   -2.4317 C.ar      1 MOL        -0.2738
     13 C11        -2.5245    3.0064   -2.2719 C.ar      1 MOL        -0.0037
     14 C12        -1.9712    3.1623   -0.9938 C.ar      1 MOL        -0.1744
     15 C13        -0.5822    3.2468   -0.7984 C.ar      1 MOL        -0.0997
     16 C14        -0.0592    3.4014    0.4822 C.ar      1 MOL        -0.1447
     17 C15        -0.9199    3.4721    1.5705 C.ar      1 MOL        -0.1143
     18 C16        -2.3008    3.3881    1.3760 C.ar      1 MOL        -0.1805
     19 C17        -2.8510    3.2335    0.1065 C.ar      1 MOL         0.4410
     20 N2         -4.1866    3.1560   -0.0455 N.ar      1 MOL        -0.7393
     21 C18        -1.6768    2.9207   -3.5022 C.3       1 MOL        -0.0642
     22 H1        -11.3649    5.2908    4.5617 H         1 MOL         0.0480
     23 H2        -12.2080    5.8595    3.1009 H         1 MOL         0.0480
     24 H3        -11.9059    4.1398    3.3166 H         1 MOL         0.0480
     25 H4         -9.4390    4.5388    3.1402 H         1 MOL         0.0389
     26 H5         -9.7445    6.2816    2.9219 H         1 MOL         0.0389
     27 H6        -10.5643    3.5454   -0.7617 H         1 MOL         0.1458
     28 H7         -8.6726    2.5925   -2.0244 H         1 MOL         0.1429
     29 H8         -5.9129    4.4682    0.7039 H         1 MOL         0.1429
     30 H9         -7.8084    5.4192    1.9628 H         1 MOL         0.1458
     31 H10        -6.3676    2.3611   -2.2626 H         1 MOL         0.4390
     32 H11        -4.3429    2.8060   -3.4158 H         1 MOL         0.1520
     33 H12         0.1134    3.1946   -1.6326 H         1 MOL         0.1309
     34 H13         1.0147    3.4669    0.6284 H         1 MOL         0.1325
     35 H14        -0.5216    3.5926    2.5737 H         1 MOL         0.1342
     36 H15        -2.9542    3.4455    2.2448 H         1 MOL         0.1479
     37 H16        -1.5108    3.9210   -3.9159 H         1 MOL         0.0515
     38 H17        -0.7049    2.4661   -3.2793 H         1 MOL         0.0515
     39 H18        -2.1553    2.2983   -4.2669 H         1 MOL         0.0515
@<TRIPOS>BOND
     1    1    2 1
     2    2    3 1
     3    3    4 1
     4    4    9 ar
     5    4    5 ar
     6    5    6 ar
     7    6    7 ar
     8    7    8 ar
     9    8    9 ar
    10    7   10 1
    11   10   11 1
    12   11   20 ar
    13   11   12 ar
    14   12   13 ar
    15   13   14 ar
    16   14   19 ar
    17   14   15 ar
    18   15   16 ar
    19   16   17 ar
    20   17   18 ar
    21   18   19 ar
    22   19   20 ar
    23   13   21 1
    24    1   22 1
    25    1   23 1
    26    1   24 1
    27    2   25 1
    28    2   26 1
    29    5   27 1
    30    6   28 1
    31    8   29 1
    32    9   30 1
    33   10   31 1
    34   12   32 1
    35   15   33 1
    36   16   34 1
    37   17   35 1
    38   18   36 1
    39   21   37 1
    40   21   38 1
    41   21   39 1
