@<TRIPOS>MOLECULE
4-(4-hydroxyphenyl)benzoic acid
   26    27     0     0     0
SMALL
USER_CHARGES

@<TRIPOS>ATOM
      1 C1          1.8851   -1.0363   -0.1124 C.ar      1 MOL        -0.1450
      2 C2          2.9210   -1.6309    0.6081 C.ar      1 MOL        -0.0665
      3 C3          2.8783   -1.6520    2.0022 C.ar      1 MOL        -0.1421
      4 C4          1.7997   -1.0786    2.6757 C.ar      1 MOL        -0.0665
      5 C5          0.7638   -0.4841    1.9551 C.ar      1 MOL        -0.1450
      6 C6          0.8066   -0.4630    0.5610 C.ar      1 MOL         0.0138
      7 C7         -0.2671    0.1533   -0.1879 C.ar      1 MOL        -0.0883
      8 C8         -1.5630    0.1610    0.3280 C.ar      1 MOL        -0.0756
      9 C9         -2.5978    0.7548   -0.3946 C.ar      1 MOL        -0.1875
     10 C10        -2.3367    1.3409   -1.6332 C.ar      1 MOL         0.1361
     11 C11        -1.0407    1.3331   -2.1491 C.ar      1 MOL        -0.1875
     12 C12        -0.0059    0.7393   -1.4264 C.ar      1 MOL        -0.0756
     13 O1         -3.3463    1.9210   -2.3380 O.3       1 MOL        -0.4949
     14 C13         3.9586   -2.2715    2.7531 C.2       1 MOL         0.6518
     15 O2          4.9577   -2.8065    2.2613 O.2       1 MOL        -0.5545
     16 O3          3.7623   -2.2049    4.0986 O.3       1 MOL        -0.6086
     17 H1          1.9330   -1.0279   -1.1989 H         1 MOL         0.1418
     18 H2          3.7564   -2.0758    0.0736 H         1 MOL         0.1573
     19 H3          1.7562   -1.0899    3.7618 H         1 MOL         0.1573
     20 H4         -0.0707   -0.0422    2.4943 H         1 MOL         0.1418
     21 H5         -1.7823   -0.2915    1.2921 H         1 MOL         0.1393
     22 H6         -3.6055    0.7589    0.0124 H         1 MOL         0.1455
     23 H7         -0.8318    1.7887   -3.1130 H         1 MOL         0.1455
     24 H8          0.9989    0.7421   -1.8423 H         1 MOL         0.1393
     25 H9         -4.1824    1.8467   -1.8510 H         1 MOL         0.4220
     26 H10         4.4864   -2.6196    4.6144 H         1 MOL         0.4461
@<TRIPOS>BOND
     1    1    6 ar
     2    1    2 ar
     3    2    3 ar
     4    3    4 ar
     5    4    5 ar
     6    5    6 ar
     7    6    7 1
     8    7   12 ar
     9    7    8 ar
    10    8    9 ar
    11    9   10 ar
    12   10   11 ar
    13   11   12 ar
    14   10   13 1
    15    3   14 1
    16   14   15 2
    17   14   16 1
    18    1   17 1
    19    2   18 1
    20    4   19 1
    21    5   20 1
    22    8   21 1
    23    9   22 1
    24   11   23 1
    25   12   24 1
    26   13   25 1
    27   16   26 1
