@<TRIPOS>MOLECULE
2-(1-naphthyl)ethanol
   25    26     0     0     0
SMALL
USER_CHARGES

@<TRIPOS>ATOM
      1 C1         -0.4966   -2.0341    0.4940 C.ar      1 MOL        -0.1323
      2 C2          0.3500   -1.0275    0.0392 C.ar      1 MOL        -0.1284
      3 C3          1.6484   -1.3369   -0.3665 C.ar      1 MOL        -0.1239
      4 C4          2.1168   -2.6602   -0.3222 C.ar      1 MOL        -0.0269
      5 C5          1.2560   -3.6839    0.1403 C.ar      1 MOL        -0.0372
      6 C6         -0.0479   -3.3542    0.5448 C.ar      1 MOL        -0.1154
      7 C7          1.7243   -5.0072    0.1848 C.ar      1 MOL        -0.1209
      8 C8          3.0228   -5.3167   -0.2210 C.ar      1 MOL        -0.1255
      9 C9          3.8693   -4.3100   -0.6758 C.ar      1 MOL        -0.1075
     10 C10         3.4207   -2.9899   -0.7267 C.ar      1 MOL        -0.0671
     11 C11         4.3825   -1.9565   -1.2260 C.3       1 MOL        -0.0388
     12 C12         4.3059   -1.7517   -2.7380 C.3       1 MOL         0.1340
     13 O1          4.6045   -2.9727   -3.4027 O.3       1 MOL        -0.5987
     14 H1         -1.5073   -1.7925    0.8097 H         1 MOL         0.1303
     15 H2         -0.0002   -0.0000    0.0001 H         1 MOL         0.1304
     16 H3          2.2793   -0.5228   -0.7155 H         1 MOL         0.1289
     17 H4         -0.7268   -4.1249    0.9038 H         1 MOL         0.1318
     18 H5          1.0800   -5.8102    0.5367 H         1 MOL         0.1310
     19 H6          3.3726   -6.3442   -0.1818 H         1 MOL         0.1320
     20 H7          4.8787   -4.5638   -0.9892 H         1 MOL         0.1419
     21 H8          4.1968   -0.9995   -0.7183 H         1 MOL         0.0575
     22 H9          5.4062   -2.2551   -0.9607 H         1 MOL         0.0575
     23 H10         3.2916   -1.4543   -3.0232 H         1 MOL         0.0239
     24 H11         5.0072   -0.9832   -3.0793 H         1 MOL         0.0239
     25 H12         4.5438   -2.7946   -4.3550 H         1 MOL         0.3995
@<TRIPOS>BOND
     1    1    6 ar
     2    1    2 ar
     3    2    3 ar
     4    3    4 ar
     5    4   10 ar
     6    4    5 ar
     7    5    6 ar
     8    5    7 ar
     9    7    8 ar
    10    8    9 ar
    11    9   10 ar
    12   10   11 1
    13   11   12 1
    14   12   13 1
    15    1   14 1
    16    2   15 1
    17    3   16 1
    18    6   17 1
    19    7   18 1
    20    8   19 1
    21    9   20 1
    22   11   21 1
    23   11   22 1
    24   12   23 1
    25   12   24 1
    26   13   25 1
