@<TRIPOS>MOLECULE
6-(3-methoxyphenyl)-2-methyl-imidazo[2,1-b][1,3,4]thiadiazole
   28    30     0     0     0
SMALL
USER_CHARGES

@<TRIPOS>ATOM
      1 C1          4.1739    1.5467   -3.6005 C.3       1 MOL        -0.1219
      2 C2          3.3925    0.7132   -2.6427 C.2       1 MOL         0.3066
      3 N1          3.9242    0.0910   -1.6266 N.2       1 MOL        -0.4565
      4 N2          2.9030   -0.5480   -1.0073 N.pl3     1 MOL         0.0073
      5 C3          2.8469   -1.3456    0.0948 C.2       1 MOL        -0.1830
      6 C4          1.5062   -1.6783    0.1978 C.2       1 MOL         0.3641
      7 N3          0.7528   -1.1053   -0.8098 N.2       1 MOL        -0.5978
      8 C5          1.6427   -0.4444   -1.4947 C.2       1 MOL         0.3880
      9 S1          1.6374    0.5489   -2.8910 S.3       1 MOL        -0.0492
     10 C6          0.9575   -2.5142    1.2210 C.ar      1 MOL        -0.0826
     11 C7          1.7361   -3.5225    1.7894 C.ar      1 MOL        -0.1586
     12 C8          1.2010   -4.3390    2.7856 C.ar      1 MOL        -0.0976
     13 C9         -0.1128   -4.1474    3.2135 C.ar      1 MOL        -0.2006
     14 C10        -0.8913   -3.1392    2.6451 C.ar      1 MOL         0.1193
     15 C11        -0.3562   -2.3226    1.6488 C.ar      1 MOL        -0.1240
     16 O1         -2.1730   -2.9524    3.0634 O.3       1 MOL        -0.3255
     17 C12        -2.6556   -3.8229    4.0857 C.3       1 MOL         0.1137
     18 H1          4.2124    2.5839   -3.2570 H         1 MOL         0.0676
     19 H2          3.7115    1.5213   -4.5912 H         1 MOL         0.0676
     20 H3          5.1956    1.1670   -3.6882 H         1 MOL         0.0676
     21 H4          3.7197   -1.5973    0.6817 H         1 MOL         0.1985
     22 H5          2.7618   -3.6846    1.4666 H         1 MOL         0.1320
     23 H6          1.8070   -5.1245    3.2276 H         1 MOL         0.1321
     24 H7         -0.5241   -4.7865    3.9903 H         1 MOL         0.1362
     25 H8         -0.9702   -1.5382    1.2117 H         1 MOL         0.1659
     26 H9         -3.6865   -3.5591    4.3178 H         1 MOL         0.0436
     27 H10        -2.0250   -3.7175    4.9676 H         1 MOL         0.0436
     28 H11        -2.6092   -4.8465    3.7169 H         1 MOL         0.0436
@<TRIPOS>BOND
     1    1    2 1
     2    2    9 1
     3    2    3 2
     4    3    4 1
     5    4    8 1
     6    4    5 1
     7    5    6 2
     8    6    7 1
     9    7    8 2
    10    8    9 1
    11    6   10 1
    12   10   15 ar
    13   10   11 ar
    14   11   12 ar
    15   12   13 ar
    16   13   14 ar
    17   14   15 ar
    18   14   16 1
    19   16   17 1
    20    1   18 1
    21    1   19 1
    22    1   20 1
    23    5   21 1
    24   11   22 1
    25   12   23 1
    26   13   24 1
    27   15   25 1
    28   17   26 1
    29   17   27 1
    30   17   28 1
