@<TRIPOS>MOLECULE
(2~{S})-~{N}-ethyl-3-hydroxy-2-phenyl-~{N}-(4-pyridylmethyl)propanamide
   41    42     0     0     0
SMALL
USER_CHARGES

@<TRIPOS>ATOM
      1 C1         -1.7312   -0.3508    0.8445 C.3       1 MOL        -0.1233
      2 C2         -0.4067    0.3245    0.9556 C.3       1 MOL         0.0933
      3 N1          0.3472   -0.1790    2.1008 N.am      1 MOL        -0.4964
      4 C3          0.0710    0.4996    3.3620 C.3       1 MOL         0.1281
      5 C4          0.9856    1.6634    3.5611 C.ar      1 MOL        -0.0648
      6 C5          2.2025    1.4917    4.2113 C.ar      1 MOL        -0.2382
      7 C6          3.0154    2.6025    4.3703 C.ar      1 MOL         0.3918
      8 N2          2.6979    3.8415    3.9325 N.ar      1 MOL        -0.6639
      9 C7          1.5072    3.9697    3.3054 C.ar      1 MOL         0.3918
     10 C8          0.6238    2.9229    3.0963 C.ar      1 MOL        -0.2382
     11 C9          1.2338   -1.2620    2.0879 C.2       1 MOL         0.6647
     12 O1          1.8412   -1.6365    3.0972 O.2       1 MOL        -0.5810
     13 C10         1.4316   -2.0110    0.7569 C.3       1 MOL        -0.0786
     14 H1          0.4971   -1.9206    0.1913 H         1 MOL         0.0865
     15 C11         1.6676   -3.5162    0.9796 C.3       1 MOL         0.1329
     16 O2          0.5514   -4.0959    1.6473 O.3       1 MOL        -0.5911
     17 C12         2.5982   -1.4441   -0.0354 C.ar      1 MOL        -0.0596
     18 C13         2.5863   -1.4984   -1.4292 C.ar      1 MOL        -0.1086
     19 C14         3.6569   -0.9784   -2.1566 C.ar      1 MOL        -0.1289
     20 C15         4.7394   -0.4041   -1.4902 C.ar      1 MOL        -0.1237
     21 C16         4.7512   -0.3499   -0.0964 C.ar      1 MOL        -0.1289
     22 C17         3.6806   -0.8699    0.6310 C.ar      1 MOL        -0.1086
     23 H2         -2.2929    0.0298   -0.0155 H         1 MOL         0.0424
     24 H3         -1.6094   -1.4349    0.7450 H         1 MOL         0.0424
     25 H4         -2.3233   -0.1578    1.7471 H         1 MOL         0.0424
     26 H5         -0.5361    1.4028    1.0890 H         1 MOL         0.0569
     27 H6          0.1943    0.1501    0.0582 H         1 MOL         0.0569
     28 H7          0.1878   -0.2414    4.1516 H         1 MOL         0.0732
     29 H8         -0.9741    0.8030    3.3324 H         1 MOL         0.0732
     30 H9          2.5143    0.5221    4.5848 H         1 MOL         0.1462
     31 H10         3.9754    2.5212    4.8697 H         1 MOL         0.0226
     32 H11         1.2716    4.9716    2.9620 H         1 MOL         0.0226
     33 H12        -0.3186    3.0886    2.5857 H         1 MOL         0.1462
     34 H13         1.8375   -4.0626    0.0451 H         1 MOL         0.0332
     35 H14         2.5408   -3.6822    1.6205 H         1 MOL         0.0332
     36 H15         0.7542   -5.0379    1.7601 H         1 MOL         0.4053
     37 H16         1.7472   -1.9445   -1.9565 H         1 MOL         0.1274
     38 H17         3.6475   -1.0206   -3.2418 H         1 MOL         0.1309
     39 H18         5.5731    0.0009   -2.0563 H         1 MOL         0.1310
     40 H19         5.5943    0.0968    0.4225 H         1 MOL         0.1309
     41 H20         3.6988   -0.8226    1.7166 H         1 MOL         0.1274
@<TRIPOS>BOND
     1    1    2 1
     2    2    3 1
     3    3    4 1
     4    4    5 1
     5    5   10 ar
     6    5    6 ar
     7    6    7 ar
     8    7    8 ar
     9    8    9 ar
    10    9   10 ar
    11    3   11 am
    12   11   12 2
    13   11   13 1
    14   13   14 1
    15   13   15 1
    16   15   16 1
    17   13   17 1
    18   17   22 ar
    19   17   18 ar
    20   18   19 ar
    21   19   20 ar
    22   20   21 ar
    23   21   22 ar
    24    1   23 1
    25    1   24 1
    26    1   25 1
    27    2   26 1
    28    2   27 1
    29    4   28 1
    30    4   29 1
    31    6   30 1
    32    7   31 1
    33    9   32 1
    34   10   33 1
    35   15   34 1
    36   15   35 1
    37   16   36 1
    38   18   37 1
    39   19   38 1
    40   20   39 1
    41   21   40 1
    42   22   41 1
