@<TRIPOS>MOLECULE
2-(4-carboxy-2-quinolyl)quinoline-4-carboxylic acid
   38    41     0     0     0
SMALL
USER_CHARGES

@<TRIPOS>ATOM
      1 C1          0.1298    2.0977   -0.4527 C.ar      1 MOL        -0.1119
      2 C2         -0.5812    3.2417   -0.8037 C.ar      1 MOL        -0.1168
      3 C3         -1.9747    3.1875   -0.9770 C.ar      1 MOL        -0.1058
      4 C4         -2.6683    1.9725   -0.7968 C.ar      1 MOL         0.3906
      5 C5         -1.9323    0.8440   -0.4461 C.ar      1 MOL        -0.1602
      6 C6         -0.5469    0.8976   -0.2738 C.ar      1 MOL        -0.1220
      7 N1         -4.0027    1.8858   -0.9548 N.ar      1 MOL        -0.6320
      8 C7         -4.6804    3.0058   -1.2959 C.ar      1 MOL         0.3557
      9 C8         -4.0902    4.2376   -1.4936 C.ar      1 MOL        -0.1531
     10 C9         -2.7151    4.3237   -1.3301 C.ar      1 MOL        -0.0784
     11 C10        -2.0988    5.6300   -1.5420 C.2       1 MOL         0.6495
     12 O1         -1.2355    5.8800   -2.3850 O.2       1 MOL        -0.5374
     13 O2         -2.5862    6.5732   -0.6933 O.3       1 MOL        -0.5940
     14 C11        -6.1058    2.8314   -1.4440 C.ar      1 MOL         0.3557
     15 N2         -6.8460    3.9258   -1.1535 N.ar      1 MOL        -0.6320
     16 C12        -8.1847    3.8373   -1.2670 C.ar      1 MOL         0.3906
     17 C13        -8.9841    4.9399   -0.9779 C.ar      1 MOL        -0.1602
     18 C14       -10.3760    4.8836   -1.0848 C.ar      1 MOL        -0.1220
     19 C15       -10.9950    3.7071   -1.4883 C.ar      1 MOL        -0.1117
     20 C16       -10.2200    2.5894   -1.7839 C.ar      1 MOL        -0.1168
     21 C17        -8.8201    2.6462   -1.6762 C.ar      1 MOL        -0.1058
     22 C18        -8.0158    1.5361   -1.9676 C.ar      1 MOL        -0.0784
     23 C19        -6.6361    1.6241   -1.8515 C.ar      1 MOL        -0.1531
     24 C20        -8.5684    0.2559   -2.4000 C.2       1 MOL         0.6495
     25 O3         -9.2481    0.0811   -3.4128 O.2       1 MOL        -0.5374
     26 O4         -8.2490   -0.7561   -1.5507 O.3       1 MOL        -0.5940
     27 H1          1.2064    2.1434   -0.3196 H         1 MOL         0.1410
     28 H2         -0.0262    4.1670   -0.9373 H         1 MOL         0.1543
     29 H3         -2.4387   -0.1085   -0.3007 H         1 MOL         0.1548
     30 H4          0.0001    0.0002    0.0003 H         1 MOL         0.1406
     31 H5         -4.6790    5.1080   -1.7676 H         1 MOL         0.1775
     32 H6         -2.1788    7.4553   -0.8284 H         1 MOL         0.4476
     33 H7         -8.5235    5.8736   -0.6603 H         1 MOL         0.1548
     34 H8        -10.9731    5.7605   -0.8519 H         1 MOL         0.1406
     35 H9        -12.0764    3.6595   -1.5724 H         1 MOL         0.1410
     36 H10       -10.7308    1.6821   -2.0972 H         1 MOL         0.1543
     37 H11        -5.9982    0.7738   -2.0738 H         1 MOL         0.1775
     38 H12        -8.6151   -1.6213   -1.8331 H         1 MOL         0.4476
@<TRIPOS>BOND
     1    1    6 ar
     2    1    2 ar
     3    2    3 ar
     4    3   10 ar
     5    3    4 ar
     6    4    5 ar
     7    5    6 ar
     8    4    7 ar
     9    7    8 ar
    10    8    9 ar
    11    9   10 ar
    12   10   11 1
    13   11   12 2
    14   11   13 1
    15    8   14 1
    16   14   23 ar
    17   14   15 ar
    18   15   16 ar
    19   16   21 ar
    20   16   17 ar
    21   17   18 ar
    22   18   19 ar
    23   19   20 ar
    24   20   21 ar
    25   21   22 ar
    26   22   23 ar
    27   22   24 1
    28   24   25 2
    29   24   26 1
    30    1   27 1
    31    2   28 1
    32    5   29 1
    33    6   30 1
    34    9   31 1
    35   13   32 1
    36   17   33 1
    37   18   34 1
    38   19   35 1
    39   20   36 1
    40   23   37 1
    41   26   38 1
