@<TRIPOS>MOLECULE
2-(4-phenylphenyl)acetic acid
   28    29     0     0     0
SMALL
USER_CHARGES

@<TRIPOS>ATOM
      1 C1          1.8853   -1.0359   -0.1124 C.ar      1 MOL        -0.1259
      2 C2          2.4877   -2.0810    0.5879 C.ar      1 MOL        -0.1299
      3 C3          2.4450   -2.1024    1.9819 C.ar      1 MOL        -0.1168
      4 C4          1.7997   -1.0786    2.6757 C.ar      1 MOL        -0.0416
      5 C5          1.1972   -0.0335    1.9753 C.ar      1 MOL        -0.1168
      6 C6          1.2400   -0.0122    0.5813 C.ar      1 MOL        -0.1299
      7 C7          1.7549   -1.1005    4.1216 C.ar      1 MOL        -0.0239
      8 C8          2.7902   -1.6948    4.8433 C.ar      1 MOL        -0.1176
      9 C9          2.7464   -1.7154    6.2373 C.ar      1 MOL        -0.1096
     10 C10         1.6673   -1.1417    6.9097 C.ar      1 MOL        -0.0846
     11 C11         0.6320   -0.5475    6.1880 C.ar      1 MOL        -0.1096
     12 C12         0.6758   -0.5270    4.7940 C.ar      1 MOL        -0.1176
     13 C13         1.6204   -1.1634    8.4002 C.3       1 MOL        -0.1244
     14 C14         0.9240   -2.4025    8.9034 C.2       1 MOL         0.6208
     15 O1          0.4614   -3.2706    8.1740 O.2       1 MOL        -0.4689
     16 O2          0.8322   -2.4416   10.2564 O.3       1 MOL        -0.5867
     17 H1          1.9170   -1.0199   -1.1979 H         1 MOL         0.1307
     18 H2          2.9891   -2.8792    0.0484 H         1 MOL         0.1332
     19 H3          2.9185   -2.9239    2.5143 H         1 MOL         0.1355
     20 H4          0.6901    0.7718    2.5016 H         1 MOL         0.1355
     21 H5          0.7695    0.8008    0.0361 H         1 MOL         0.1332
     22 H6          3.6379   -2.1462    4.3334 H         1 MOL         0.1389
     23 H7          3.5575   -2.1808    6.7911 H         1 MOL         0.1335
     24 H8         -0.2125   -0.0974    6.7034 H         1 MOL         0.1335
     25 H9         -0.1393   -0.0607    4.2454 H         1 MOL         0.1389
     26 H10         1.1281   -0.2715    8.8074 H         1 MOL         0.0751
     27 H11         2.6312   -1.1509    8.8282 H         1 MOL         0.0751
     28 H12         1.2435   -1.6854   10.7269 H         1 MOL         0.4199
@<TRIPOS>BOND
     1    1    6 ar
     2    1    2 ar
     3    2    3 ar
     4    3    4 ar
     5    4    5 ar
     6    5    6 ar
     7    4    7 1
     8    7   12 ar
     9    7    8 ar
    10    8    9 ar
    11    9   10 ar
    12   10   11 ar
    13   11   12 ar
    14   10   13 1
    15   13   14 1
    16   14   15 2
    17   14   16 1
    18    1   17 1
    19    2   18 1
    20    3   19 1
    21    5   20 1
    22    6   21 1
    23    8   22 1
    24    9   23 1
    25   11   24 1
    26   12   25 1
    27   13   26 1
    28   13   27 1
    29   16   28 1
