@<TRIPOS>MOLECULE
methyl (1~{R},13~{R},15~{S},17~{R},18~{R},19~{S},20~{S})-6,18-dimethoxy-17-(3,4,5-trimethoxybenzoyl)oxy-1,3,11,12,14,15,16,17,18,19,20,21-dodecahydroyohimban-19-carboxylate
   84    89     0     0     0
SMALL
USER_CHARGES

@<TRIPOS>ATOM
      1 C1         -2.3454    1.0363    6.6527 C.3       1 MOL         0.1124
      2 O1         -0.9238    1.0786    6.6927 O.3       1 MOL        -0.3283
      3 C2         -0.2662    0.6959    5.5612 C.ar      1 MOL         0.1357
      4 C3          1.1266    0.7148    5.5357 C.ar      1 MOL        -0.2223
      5 C4          1.8272    0.3269    4.3880 C.ar      1 MOL        -0.0528
      6 C5          1.1078   -0.0855    3.2486 C.ar      1 MOL        -0.1087
      7 C6         -0.2899   -0.0932    3.3021 C.ar      1 MOL         0.1135
      8 C7         -1.0020    0.2906    4.4442 C.ar      1 MOL        -0.1786
      9 N1         -0.7491   -0.5318    2.0778 N.pl3     1 MOL        -0.5635
     10 C8          0.3083   -0.7808    1.2495 C.2       1 MOL         0.0071
     11 C9          1.4718   -0.5334    1.9501 C.2       1 MOL        -0.1306
     12 C10         2.8116   -0.7169    1.3232 C.3       1 MOL        -0.0399
     13 C11         2.6924   -1.4599   -0.0309 C.3       1 MOL         0.1579
     14 N2          1.5343   -1.0565   -0.8667 N.3       1 MOL        -0.6980
     15 C12         0.2494   -1.3073   -0.1564 C.3       1 MOL         0.2367
     16 H1          0.1454   -2.3984   -0.0643 H         1 MOL         0.0752
     17 C13        -0.9651   -0.8314   -0.9713 C.3       1 MOL        -0.0730
     18 C14        -0.8288    0.6185   -1.4767 C.3       1 MOL        -0.0559
     19 H2         -0.8134    1.2720   -0.5927 H         1 MOL         0.0766
     20 C15         0.5084    0.7878   -2.2251 C.3       1 MOL        -0.0526
     21 H3          0.6515    1.8593   -2.4256 H         1 MOL         0.0583
     22 C16         1.6765    0.3291   -1.3396 C.3       1 MOL         0.1567
     23 C17         0.5013    0.0650   -3.5815 C.3       1 MOL        -0.0980
     24 C18        -0.6683    0.5092   -4.4582 C.3       1 MOL         0.1223
     25 H4         -0.5141    1.5422   -4.7922 H         1 MOL         0.0888
     26 C19        -2.0167    0.3883   -3.7415 C.3       1 MOL         0.1479
     27 H5         -2.3008   -0.6749   -3.6459 H         1 MOL         0.0735
     28 C20        -1.9965    1.0801   -2.3732 C.3       1 MOL        -0.1015
     29 H6         -1.9049    2.1638   -2.5330 H         1 MOL         0.1002
     30 C21        -3.3094    0.8963   -1.6667 C.2       1 MOL         0.6378
     31 O2         -4.2339    0.2320   -2.1092 O.2       1 MOL        -0.5260
     32 O3         -3.2873    1.5777   -0.4875 O.3       1 MOL        -0.4513
     33 C22        -4.4838    1.4885    0.2926 C.3       1 MOL         0.1243
     34 O4         -3.0186    0.9990   -4.5621 O.3       1 MOL        -0.4180
     35 C23        -3.4280    0.1275   -5.6021 C.3       1 MOL         0.1172
     36 O5         -0.7050   -0.3049   -5.6301 O.3       1 MOL        -0.4322
     37 C24         0.0328    0.1377   -6.6824 C.2       1 MOL         0.6524
     38 O6          0.7114    1.1526   -6.7110 O.2       1 MOL        -0.5255
     39 C25        -0.0906   -0.7921   -7.8334 C.ar      1 MOL        -0.1040
     40 C26         0.0176   -0.3067   -9.1366 C.ar      1 MOL        -0.1012
     41 C27        -0.0954   -1.1806  -10.2179 C.ar      1 MOL         0.0798
     42 C28        -0.3168   -2.5398   -9.9960 C.ar      1 MOL         0.0926
     43 C29        -0.4251   -3.0251   -8.6928 C.ar      1 MOL         0.0798
     44 C30        -0.3120   -2.1512   -7.6115 C.ar      1 MOL        -0.1012
     45 O7         -0.6392   -4.3508   -8.4632 O.3       1 MOL        -0.3373
     46 C31        -0.7377   -4.7651   -7.1021 C.3       1 MOL         0.1161
     47 O8         -0.4291   -3.3938  -11.0531 O.3       1 MOL        -0.3368
     48 C32         0.7719   -3.9986  -11.5265 C.3       1 MOL         0.1192
     49 O9          0.0143   -0.6943  -11.4858 O.3       1 MOL        -0.3373
     50 C33        -1.1879   -0.2640  -12.1211 C.3       1 MOL         0.1161
     51 H7         -2.7476    1.3645    7.6142 H         1 MOL         0.0440
     52 H8         -2.6745    0.0167    6.4369 H         1 MOL         0.0440
     53 H9         -2.6989    1.7056    5.8648 H         1 MOL         0.0440
     54 H10         1.6832    1.0329    6.4139 H         1 MOL         0.1348
     55 H11         2.9133    0.3465    4.3829 H         1 MOL         0.1345
     56 H12        -2.0871    0.2736    4.4608 H         1 MOL         0.1491
     57 H13        -1.7242   -0.6474    1.8392 H         1 MOL         0.4543
     58 H14         3.2696    0.2672    1.1677 H         1 MOL         0.0525
     59 H15         3.4695   -1.2835    1.9915 H         1 MOL         0.0525
     60 H16         3.6248   -1.3420   -0.5968 H         1 MOL         0.0572
     61 H17         2.6060   -2.5376    0.1643 H         1 MOL         0.0572
     62 H18        -1.0881   -1.5095   -1.8250 H         1 MOL         0.0533
     63 H19        -1.8804   -0.9402   -0.3784 H         1 MOL         0.0533
     64 H20         2.6070    0.4206   -1.9144 H         1 MOL         0.0448
     65 H21         1.7600    1.0313   -0.5010 H         1 MOL         0.0448
     66 H22         1.4404    0.2619   -4.1148 H         1 MOL         0.0687
     67 H23         0.4709   -1.0246   -3.4555 H         1 MOL         0.0687
     68 H24        -4.3510    2.0669    1.2041 H         1 MOL         0.0511
     69 H25        -4.6744    0.4424    0.5225 H         1 MOL         0.0511
     70 H26        -5.3034    1.8979   -0.2937 H         1 MOL         0.0511
     71 H27        -4.1907    0.6196   -6.2098 H         1 MOL         0.0407
     72 H28        -3.8275   -0.7926   -5.1696 H         1 MOL         0.0407
     73 H29        -2.5636   -0.1096   -6.2262 H         1 MOL         0.0407
     74 H30         0.1908    0.7522   -9.3136 H         1 MOL         0.1615
     75 H31        -0.3962   -2.5341   -6.5971 H         1 MOL         0.1615
     76 H32        -0.9076   -5.8406   -7.0701 H         1 MOL         0.0455
     77 H33        -1.5617   -4.2329   -6.6279 H         1 MOL         0.0455
     78 H34         0.1976   -4.5231   -6.5991 H         1 MOL         0.0455
     79 H35         0.5342   -4.6508  -12.3662 H         1 MOL         0.0490
     80 H36         1.2262   -4.5683  -10.7163 H         1 MOL         0.0490
     81 H37         1.4510   -3.2110  -11.8509 H         1 MOL         0.0490
     82 H38        -0.9510    0.0972  -13.1211 H         1 MOL         0.0455
     83 H39        -1.6404    0.5278  -11.5251 H         1 MOL         0.0455
     84 H40        -1.8671   -1.1131  -12.1857 H         1 MOL         0.0455
@<TRIPOS>BOND
     1    1    2 1
     2    2    3 1
     3    3    8 ar
     4    3    4 ar
     5    4    5 ar
     6    5    6 ar
     7    6   11 1
     8    6    7 ar
     9    7    8 ar
    10    7    9 1
    11    9   10 1
    12   10   15 1
    13   10   11 2
    14   11   12 1
    15   12   13 1
    16   13   14 1
    17   14   22 1
    18   14   15 1
    19   15   16 1
    20   15   17 1
    21   17   18 1
    22   18   19 1
    23   18   28 1
    24   18   20 1
    25   20   21 1
    26   20   22 1
    27   20   23 1
    28   23   24 1
    29   24   25 1
    30   24   26 1
    31   26   27 1
    32   26   28 1
    33   28   29 1
    34   28   30 1
    35   30   31 2
    36   30   32 1
    37   32   33 1
    38   26   34 1
    39   34   35 1
    40   24   36 1
    41   36   37 1
    42   37   38 2
    43   37   39 1
    44   39   44 ar
    45   39   40 ar
    46   40   41 ar
    47   41   42 ar
    48   42   43 ar
    49   43   44 ar
    50   43   45 1
    51   45   46 1
    52   42   47 1
    53   47   48 1
    54   41   49 1
    55   49   50 1
    56    1   51 1
    57    1   52 1
    58    1   53 1
    59    4   54 1
    60    5   55 1
    61    8   56 1
    62    9   57 1
    63   12   58 1
    64   12   59 1
    65   13   60 1
    66   13   61 1
    67   17   62 1
    68   17   63 1
    69   22   64 1
    70   22   65 1
    71   23   66 1
    72   23   67 1
    73   33   68 1
    74   33   69 1
    75   33   70 1
    76   35   71 1
    77   35   72 1
    78   35   73 1
    79   40   74 1
    80   44   75 1
    81   46   76 1
    82   46   77 1
    83   46   78 1
    84   48   79 1
    85   48   80 1
    86   48   81 1
    87   50   82 1
    88   50   83 1
    89   50   84 1
