@<TRIPOS>MOLECULE
5-chloropyridine-3-carboxylic acid
   14    14     0     0     0
SMALL
USER_CHARGES

@<TRIPOS>ATOM
      1 C1          1.3879   -0.0684    1.6522 C.ar      1 MOL        -0.0314
      2 C2          0.2265   -0.4197    0.9733 C.ar      1 MOL        -0.2465
      3 C3         -0.6317   -1.3224    1.5803 C.ar      1 MOL         0.4565
      4 N1         -0.4092   -1.8816    2.7908 N.ar      1 MOL        -0.6628
      5 C4          0.7299   -1.5161    3.4206 C.ar      1 MOL         0.4377
      6 C5          1.6520   -0.6227    2.8997 C.ar      1 MOL        -0.1258
      7 Cl1         3.0739   -0.2132    3.7668 Cl        1 MOL        -0.0594
      8 C6         -0.0780    0.1415   -0.3312 C.2       1 MOL         0.6573
      9 O1          0.6260    0.9503   -0.9469 O.2       1 MOL        -0.5419
     10 O2         -1.2547   -0.3214   -0.8374 O.3       1 MOL        -0.6070
     11 H1          2.0852    0.6372    1.2063 H         1 MOL         0.1755
     12 H2         -1.5541   -1.6345    1.0999 H         1 MOL         0.0526
     13 H3          0.8785   -1.9834    4.3895 H         1 MOL         0.0429
     14 H4         -1.4691    0.0512   -1.7191 H         1 MOL         0.4523
@<TRIPOS>BOND
     1    1    6 ar
     2    1    2 ar
     3    2    3 ar
     4    3    4 ar
     5    4    5 ar
     6    5    6 ar
     7    6    7 1
     8    2    8 1
     9    8    9 2
    10    8   10 1
    11    1   11 1
    12    3   12 1
    13    5   13 1
    14   10   14 1
