@<TRIPOS>MOLECULE
4-piperidyl(3-pyridyl)methanone
   28    29     0     0     0
SMALL
USER_CHARGES

@<TRIPOS>ATOM
      1 C1          0.6961   -0.5757    2.5788 C.ar      1 MOL        -0.2500
      2 C2          0.4671    0.1672    1.4260 C.ar      1 MOL        -0.0668
      3 C3          0.4354   -0.4693    0.1902 C.ar      1 MOL        -0.2787
      4 C4          0.6370   -1.8398    0.1613 C.ar      1 MOL         0.4340
      5 N1          0.8622   -2.5950    1.2598 N.ar      1 MOL        -0.6651
      6 C5          0.8858   -1.9415    2.4430 C.ar      1 MOL         0.4085
      7 C6          0.1978    0.2857   -1.0427 C.2       1 MOL         0.5836
      8 O1          0.5200    1.4568   -1.2143 O.2       1 MOL        -0.5075
      9 C7         -0.4835   -0.4384   -2.1696 C.3       1 MOL        -0.1569
     10 C8         -0.5769    0.4511   -3.4111 C.3       1 MOL        -0.0707
     11 C9         -1.6538    1.5284   -3.2727 C.3       1 MOL         0.1635
     12 N2         -2.9526    0.9479   -2.9337 N.3       1 MOL        -0.8152
     13 C10        -2.8909    0.2055   -1.6751 C.3       1 MOL         0.1635
     14 C11        -1.8684   -0.9300   -1.7434 C.3       1 MOL        -0.0707
     15 H1          0.7230   -0.1010    3.5529 H         1 MOL         0.1492
     16 H2          0.3129    1.2403    1.5017 H         1 MOL         0.1405
     17 H3          0.6227   -2.3914   -0.7740 H         1 MOL         0.0341
     18 H4          1.0665   -2.5660    3.3117 H         1 MOL         0.0255
     19 H5          0.1488   -1.3005   -2.3955 H         1 MOL         0.0614
     20 H6          0.3889    0.9299   -3.6119 H         1 MOL         0.0589
     21 H7         -0.8089   -0.1760   -4.2819 H         1 MOL         0.0589
     22 H8         -1.3647    2.2743   -2.5232 H         1 MOL         0.0294
     23 H9         -1.7456    2.0609   -4.2260 H         1 MOL         0.0294
     24 H10        -3.6427    1.6938   -2.8506 H         1 MOL         0.3650
     25 H11        -2.6572    0.8848   -0.8465 H         1 MOL         0.0294
     26 H12        -3.8796   -0.2184   -1.4672 H         1 MOL         0.0294
     27 H13        -1.8156   -1.4272   -0.7674 H         1 MOL         0.0589
     28 H14        -2.2168   -1.6811   -2.4644 H         1 MOL         0.0589
@<TRIPOS>BOND
     1    1    6 ar
     2    1    2 ar
     3    2    3 ar
     4    3    4 ar
     5    4    5 ar
     6    5    6 ar
     7    3    7 1
     8    7    8 2
     9    7    9 1
    10    9   14 1
    11    9   10 1
    12   10   11 1
    13   11   12 1
    14   12   13 1
    15   13   14 1
    16    1   15 1
    17    2   16 1
    18    4   17 1
    19    6   18 1
    20    9   19 1
    21   10   20 1
    22   10   21 1
    23   11   22 1
    24   11   23 1
    25   12   24 1
    26   13   25 1
    27   13   26 1
    28   14   27 1
    29   14   28 1
