@<TRIPOS>MOLECULE
6-bromo-~{N}-(2-phenylethyl)quinazolin-4-amine
   34    36     0     0     0
SMALL
USER_CHARGES

@<TRIPOS>ATOM
      1 C1          0.7559   -0.5315    1.3889 C.ar      1 MOL        -0.1257
      2 C2          0.8143   -1.9226    1.4746 C.ar      1 MOL        -0.1269
      3 C3          1.9082   -2.6085    0.9469 C.ar      1 MOL        -0.1220
      4 C4          2.9438   -1.9034    0.3336 C.ar      1 MOL        -0.0864
      5 C5          2.8854   -0.5124    0.2480 C.ar      1 MOL        -0.1220
      6 C6          1.7914    0.1736    0.7756 C.ar      1 MOL        -0.1269
      7 C7          4.1269   -2.6461   -0.2372 C.3       1 MOL        -0.0535
      8 C8          5.2553   -2.8353    0.7735 C.3       1 MOL         0.2246
      9 N1          5.7734   -1.5813    1.2668 N.pl3     1 MOL        -0.8761
     10 C9          6.3265   -1.4131    2.5607 C.ar      1 MOL         0.7279
     11 C10         6.4127   -0.1353    3.1062 C.ar      1 MOL        -0.3100
     12 C11         5.9723    1.0150    2.4287 C.ar      1 MOL        -0.0610
     13 C12         6.0870    2.2639    3.0311 C.ar      1 MOL        -0.0489
     14 C13         6.6389    2.3638    4.3034 C.ar      1 MOL        -0.0810
     15 C14         7.0745    1.2152    4.9706 C.ar      1 MOL        -0.1827
     16 C15         6.9717   -0.0473    4.3916 C.ar      1 MOL         0.4570
     17 N2          7.3958   -1.1409    5.0487 N.ar      1 MOL        -0.7333
     18 C16         7.2578   -2.3219    4.4125 C.ar      1 MOL         0.6869
     19 N3          6.7414   -2.5284    3.1904 N.ar      1 MOL        -0.7917
     20 Br1         5.4971    3.8142    2.1276 Br        1 MOL        -0.0848
     21 H1         -0.0952    0.0028    1.8009 H         1 MOL         0.1334
     22 H2          0.0088   -2.4717    1.9529 H         1 MOL         0.1336
     23 H3          1.9451   -3.6923    1.0181 H         1 MOL         0.1328
     24 H4          3.6876    0.0453   -0.2282 H         1 MOL         0.1328
     25 H5          1.7467    1.2567    0.7098 H         1 MOL         0.1336
     26 H6          4.5049   -2.0864   -1.1021 H         1 MOL         0.0530
     27 H7          3.8014   -3.6193   -0.6264 H         1 MOL         0.0530
     28 H8          4.8880   -3.3891    1.6433 H         1 MOL         0.0636
     29 H9          6.0939   -3.3927    0.3432 H         1 MOL         0.0636
     30 H10         5.7403   -0.7760    0.6516 H         1 MOL         0.4394
     31 H11         5.5397    0.9457    1.4330 H         1 MOL         0.1355
     32 H12         6.7408    3.3281    4.7947 H         1 MOL         0.1515
     33 H13         7.5014    1.3204    5.9663 H         1 MOL         0.1587
     34 H14         7.6013   -3.1993    4.9470 H         1 MOL         0.0519
@<TRIPOS>BOND
     1    1    6 ar
     2    1    2 ar
     3    2    3 ar
     4    3    4 ar
     5    4    5 ar
     6    5    6 ar
     7    4    7 1
     8    7    8 1
     9    8    9 1
    10    9   10 1
    11   10   19 ar
    12   10   11 ar
    13   11   16 ar
    14   11   12 ar
    15   12   13 ar
    16   13   14 ar
    17   14   15 ar
    18   15   16 ar
    19   16   17 ar
    20   17   18 ar
    21   18   19 ar
    22   13   20 1
    23    1   21 1
    24    2   22 1
    25    3   23 1
    26    5   24 1
    27    6   25 1
    28    7   26 1
    29    7   27 1
    30    8   28 1
    31    8   29 1
    32    9   30 1
    33   12   31 1
    34   14   32 1
    35   15   33 1
    36   18   34 1
