@<TRIPOS>MOLECULE
2-(4-fluorophenyl)sulfanylacetic acid
   19    19     0     0     0
SMALL
USER_CHARGES

@<TRIPOS>ATOM
      1 C1          1.8851   -1.0363   -0.1124 C.ar      1 MOL        -0.1720
      2 C2          2.9210   -1.6309    0.6081 C.ar      1 MOL        -0.0698
      3 C3          2.8783   -1.6520    2.0022 C.ar      1 MOL        -0.0544
      4 C4          1.7997   -1.0786    2.6757 C.ar      1 MOL        -0.0698
      5 C5          0.7638   -0.4841    1.9551 C.ar      1 MOL        -0.1720
      6 C6          0.8066   -0.4630    0.5610 C.ar      1 MOL         0.1469
      7 F1         -0.1887    0.1067   -0.1311 F         1 MOL        -0.1345
      8 S1          4.2024   -2.4108    2.9229 S.3       1 MOL        -0.1566
      9 C7          5.2530   -2.9455    1.5545 C.3       1 MOL        -0.0976
     10 C8          6.4702   -3.6334    2.1012 C.2       1 MOL         0.6482
     11 O1          6.6882   -3.7917    3.2956 O.2       1 MOL        -0.5295
     12 O2          7.3036   -4.0776    1.1265 O.3       1 MOL        -0.6047
     13 H1          1.9170   -1.0205   -1.1978 H         1 MOL         0.1543
     14 H2          3.7526   -2.0737    0.0652 H         1 MOL         0.1506
     15 H3          1.7477   -1.0869    3.7616 H         1 MOL         0.1506
     16 H4         -0.0766   -0.0382    2.4785 H         1 MOL         0.1543
     17 H5          5.5682   -2.0775    0.9681 H         1 MOL         0.1043
     18 H6          4.7088   -3.6154    0.8831 H         1 MOL         0.1043
     19 H7          7.0086   -3.8838    0.2109 H         1 MOL         0.4473
@<TRIPOS>BOND
     1    1    6 ar
     2    1    2 ar
     3    2    3 ar
     4    3    4 ar
     5    4    5 ar
     6    5    6 ar
     7    6    7 1
     8    3    8 1
     9    8    9 1
    10    9   10 1
    11   10   11 2
    12   10   12 1
    13    1   13 1
    14    2   14 1
    15    4   15 1
    16    5   16 1
    17    9   17 1
    18    9   18 1
    19   12   19 1
