@<TRIPOS>MOLECULE
quinoxaline-2-carboxamide
   20    21     0     0     0
SMALL
USER_CHARGES

@<TRIPOS>ATOM
      1 C1          1.9338   -0.9390   -0.0015 C.ar      1 MOL        -0.1122
      2 C2          0.8925   -0.2271    0.5751 C.ar      1 MOL        -0.1247
      3 C3          0.9988    0.1958    1.8989 C.ar      1 MOL        -0.1458
      4 C4          2.1323   -0.0820    2.6593 C.ar      1 MOL         0.2795
      5 C5          3.1886   -0.8044    2.0745 C.ar      1 MOL         0.2948
      6 C6          3.0723   -1.2223    0.7509 C.ar      1 MOL        -0.1633
      7 N1          4.2972   -1.0899    2.7798 N.ar      1 MOL        -0.6226
      8 C7          4.3566   -0.6622    4.0538 C.ar      1 MOL         0.3084
      9 C8          3.3285    0.0410    4.6230 C.ar      1 MOL         0.2657
     10 N2          2.2113    0.3367    3.9346 N.ar      1 MOL        -0.5620
     11 C9          3.3903    0.5031    5.9960 C.2       1 MOL         0.5703
     12 O1          4.3890    0.2937    6.7107 O.2       1 MOL        -0.5666
     13 N3          2.2988    1.2120    6.4950 N.am      1 MOL        -0.6795
     14 H1          1.8636   -1.2742   -1.0317 H         1 MOL         0.1398
     15 H2         -0.0000    0.0000    0.0001 H         1 MOL         0.1432
     16 H3          0.1744    0.7536    2.3385 H         1 MOL         0.1608
     17 H4          3.8817   -1.7818    0.2859 H         1 MOL         0.1562
     18 H5          5.2639   -0.9101    4.5914 H         1 MOL         0.0275
     19 H6          1.4837    1.4253    5.9304 H         1 MOL         0.3152
     20 H7          2.2888    1.5758    7.4424 H         1 MOL         0.3152
@<TRIPOS>BOND
     1    1    6 ar
     2    1    2 ar
     3    2    3 ar
     4    3    4 ar
     5    4   10 ar
     6    4    5 ar
     7    5    6 ar
     8    5    7 ar
     9    7    8 ar
    10    8    9 ar
    11    9   10 ar
    12    9   11 1
    13   11   12 2
    14   11   13 am
    15    1   14 1
    16    2   15 1
    17    3   16 1
    18    6   17 1
    19    8   18 1
    20   13   19 1
    21   13   20 1
