@<TRIPOS>MOLECULE
2-benzyl-6-(4-chlorophenyl)imidazo[2,1-b]thiazole
   35    38     0     0     0
SMALL
USER_CHARGES

@<TRIPOS>ATOM
      1 C1         -7.1912   -3.4490    1.1651 C.ar      1 MOL        -0.1257
      2 C2         -7.2988   -3.2865   -0.2161 C.ar      1 MOL        -0.1255
      3 C3         -6.1681   -3.4111   -1.0232 C.ar      1 MOL        -0.1208
      4 C4         -4.9297   -3.6984   -0.4492 C.ar      1 MOL        -0.0864
      5 C5         -4.8220   -3.8609    0.9320 C.ar      1 MOL        -0.1208
      6 C6         -5.9528   -3.7363    1.7391 C.ar      1 MOL        -0.1255
      7 C7         -3.7090   -3.8326   -1.3213 C.3       1 MOL         0.0335
      8 C8         -2.9966   -2.5418   -1.5150 C.2       1 MOL        -0.1167
      9 C9         -2.0099   -2.0391   -0.7488 C.2       1 MOL        -0.0900
     10 N1         -1.5775   -0.8199   -1.2142 N.pl3     1 MOL        -0.1318
     11 C10        -0.6487    0.1093   -0.8578 C.2       1 MOL        -0.2295
     12 C11        -0.7835    1.1028   -1.8140 C.2       1 MOL         0.3722
     13 N2         -1.7665    0.8020   -2.7385 N.2       1 MOL        -0.6214
     14 C12        -2.2046   -0.3563   -2.3296 C.2       1 MOL         0.4059
     15 S1         -3.4195   -1.4698   -2.8759 S.3       1 MOL        -0.0161
     16 C13        -0.0031    2.3014   -1.8495 C.ar      1 MOL        -0.1067
     17 C14        -0.5467    3.4718   -2.3789 C.ar      1 MOL        -0.1041
     18 C15         0.2142    4.6404   -2.4143 C.ar      1 MOL        -0.1276
     19 C16         1.5186    4.6385   -1.9204 C.ar      1 MOL         0.0172
     20 C17         2.0622    3.4680   -1.3909 C.ar      1 MOL        -0.1276
     21 C18         1.3014    2.2995   -1.3555 C.ar      1 MOL        -0.1041
     22 Cl1         2.4579    6.0799   -1.9645 Cl        1 MOL        -0.0977
     23 H1         -8.0718   -3.3533    1.7936 H         1 MOL         0.1331
     24 H2         -8.2630   -3.0639   -0.6634 H         1 MOL         0.1342
     25 H3         -6.2614   -3.2827   -2.0984 H         1 MOL         0.1301
     26 H4         -3.8612   -4.0847    1.3880 H         1 MOL         0.1301
     27 H5         -5.8690   -3.8640    2.8145 H         1 MOL         0.1342
     28 H6         -3.0229   -4.5646   -0.8780 H         1 MOL         0.0644
     29 H7         -3.9898   -4.2406   -2.2996 H         1 MOL         0.0644
     30 H8         -1.5715   -2.4868    0.1306 H         1 MOL         0.1874
     31 H9         -0.0019   -0.0056    0.0016 H         1 MOL         0.1873
     32 H10        -1.5620    3.4901   -2.7684 H         1 MOL         0.1451
     33 H11        -0.2228    5.5451   -2.8296 H         1 MOL         0.1469
     34 H12         3.0775    3.4520   -1.0031 H         1 MOL         0.1469
     35 H13         1.7402    1.3951   -0.9403 H         1 MOL         0.1451
@<TRIPOS>BOND
     1    1    6 ar
     2    1    2 ar
     3    2    3 ar
     4    3    4 ar
     5    4    5 ar
     6    5    6 ar
     7    4    7 1
     8    7    8 1
     9    8   15 1
    10    8    9 2
    11    9   10 1
    12   10   14 1
    13   10   11 1
    14   11   12 2
    15   12   13 1
    16   13   14 2
    17   14   15 1
    18   12   16 1
    19   16   21 ar
    20   16   17 ar
    21   17   18 ar
    22   18   19 ar
    23   19   20 ar
    24   20   21 ar
    25   19   22 1
    26    1   23 1
    27    2   24 1
    28    3   25 1
    29    5   26 1
    30    6   27 1
    31    7   28 1
    32    7   29 1
    33    9   30 1
    34   11   31 1
    35   17   32 1
    36   18   33 1
    37   20   34 1
    38   21   35 1
