@<TRIPOS>MOLECULE
4-amino-~{N}-(4-methylpyrimidin-2-yl)benzenesulfonamide
   30    31     0     0     0
SMALL
USER_CHARGES

@<TRIPOS>ATOM
      1 C1          3.3955   -6.1692   -2.1993 C.3       1 MOL        -0.1592
      2 C2          4.0250   -4.9103   -1.7045 C.ar      1 MOL         0.4770
      3 C3          5.0795   -4.9806   -0.8173 C.ar      1 MOL        -0.3916
      4 C4          5.6010   -3.7687   -0.4126 C.ar      1 MOL         0.4577
      5 N1          5.1370   -2.5743   -0.8351 N.ar      1 MOL        -0.7340
      6 C5          4.1060   -2.6386   -1.6990 C.ar      1 MOL         0.8961
      7 N2          3.5109   -3.7521   -2.1677 N.ar      1 MOL        -0.7220
      8 N3          3.5845   -1.3844   -2.1716 N.pl3     1 MOL        -0.8601
      9 S1          1.9376   -1.0108   -1.8574 S.o2      1 MOL         1.5380
     10 O1          1.6851    0.3585   -2.2655 O.2       1 MOL        -0.6557
     11 O2          1.0812   -2.0764   -2.3417 O.2       1 MOL        -0.6557
     12 C6          1.8851   -1.0363   -0.1124 C.ar      1 MOL        -0.4759
     13 C7          1.5913   -2.2228    0.5595 C.ar      1 MOL         0.0560
     14 C8          1.5484   -2.2426    1.9536 C.ar      1 MOL        -0.2532
     15 C9          1.7993   -1.0759    2.6757 C.ar      1 MOL         0.2662
     16 C10         2.0931    0.1106    2.0037 C.ar      1 MOL        -0.2532
     17 C11         2.1360    0.1304    0.6096 C.ar      1 MOL         0.0560
     18 N4          1.7552   -1.0965    4.0852 N.pl3     1 MOL        -0.8758
     19 H1          3.8988   -6.5064   -3.1106 H         1 MOL         0.0615
     20 H2          3.4599   -6.9609   -1.4456 H         1 MOL         0.0615
     21 H3          2.3333   -6.0155   -2.4175 H         1 MOL         0.0615
     22 H4          5.4784   -5.9197   -0.4559 H         1 MOL         0.1566
     23 H5          6.4310   -3.7234    0.2843 H         1 MOL         0.0278
     24 H6          4.2445   -0.5971   -2.1208 H         1 MOL         0.4697
     25 H7          1.3932   -3.1368    0.0062 H         1 MOL         0.1548
     26 H8          1.3197   -3.1732    2.4667 H         1 MOL         0.1374
     27 H9          2.2911    1.0254    2.5567 H         1 MOL         0.1374
     28 H10         2.3652    1.0606    0.0968 H         1 MOL         0.1548
     29 H11         1.9830   -0.2655    4.5927 H         1 MOL         0.4334
     30 H12         1.5896   -1.9634    4.5553 H         1 MOL         0.4334
@<TRIPOS>BOND
     1    1    2 1
     2    2    7 ar
     3    2    3 ar
     4    3    4 ar
     5    4    5 ar
     6    5    6 ar
     7    6    7 ar
     8    6    8 1
     9    8    9 1
    10    9   10 2
    11    9   11 2
    12    9   12 1
    13   12   17 ar
    14   12   13 ar
    15   13   14 ar
    16   14   15 ar
    17   15   16 ar
    18   16   17 ar
    19   15   18 1
    20    1   19 1
    21    1   20 1
    22    1   21 1
    23    3   22 1
    24    4   23 1
    25    8   24 1
    26   13   25 1
    27   14   26 1
    28   16   27 1
    29   17   28 1
    30   18   29 1
    31   18   30 1
