@<TRIPOS>MOLECULE
~{N}2,~{N}4-bis(p-tolyl)pyrimidine-2,4-diamine
   40    42     0     0     0
SMALL
USER_CHARGES

@<TRIPOS>ATOM
      1 C1          6.8130   -3.5969    3.3171 C.3       1 MOL        -0.0495
      2 C2          5.4882   -2.9423    3.5184 C.ar      1 MOL        -0.0982
      3 C3          5.3043   -2.0499    4.5746 C.ar      1 MOL        -0.1054
      4 C4          4.0651   -1.4380    4.7630 C.ar      1 MOL        -0.1625
      5 C5          3.0097   -1.7186    3.8952 C.ar      1 MOL         0.1514
      6 C6          3.1935   -2.6110    2.8390 C.ar      1 MOL        -0.1625
      7 C7          4.4328   -3.2229    2.6507 C.ar      1 MOL        -0.1054
      8 N1          1.7568   -1.0994    4.0853 N.pl3     1 MOL        -0.7549
      9 C8          1.2833   -0.1774    5.0388 C.ar      1 MOL         0.7253
     10 C9          0.2925    0.6963    4.6398 C.ar      1 MOL        -0.4575
     11 C10        -0.1428    1.5850    5.6017 C.ar      1 MOL         0.4808
     12 N2          0.3442    1.6263    6.8592 N.ar      1 MOL        -0.7642
     13 C11         1.3069    0.7233    7.1258 C.ar      1 MOL         0.9203
     14 N3          1.8155   -0.1917    6.2785 N.ar      1 MOL        -0.8231
     15 N4          1.8413    0.7383    8.4324 N.pl3     1 MOL        -0.7374
     16 C12         2.8341   -0.0337    9.0644 C.ar      1 MOL         0.1603
     17 C13         3.6061    0.5226   10.0844 C.ar      1 MOL        -0.1507
     18 C14         4.5899   -0.2425   10.7108 C.ar      1 MOL        -0.1115
     19 C15         4.8018   -1.5638   10.3172 C.ar      1 MOL        -0.0982
     20 C16         4.0298   -2.1200    9.2972 C.ar      1 MOL        -0.1115
     21 C17         3.0460   -1.3550    8.6708 C.ar      1 MOL        -0.1507
     22 C18         5.8539   -2.3817   10.9867 C.3       1 MOL        -0.0487
     23 H1          7.4376   -2.9839    2.6601 H         1 MOL         0.0444
     24 H2          7.3310   -3.7330    4.2722 H         1 MOL         0.0444
     25 H3          6.6947   -4.5890    2.8687 H         1 MOL         0.0444
     26 H4          6.1212   -1.8252    5.2550 H         1 MOL         0.1339
     27 H5          3.9328   -0.7447    5.5895 H         1 MOL         0.1406
     28 H6          2.3784   -2.8364    2.1563 H         1 MOL         0.1406
     29 H7          4.5671   -3.9170    1.8255 H         1 MOL         0.1339
     30 H8          1.0595   -1.3736    3.3994 H         1 MOL         0.4491
     31 H9         -0.1242    0.6972    3.6402 H         1 MOL         0.1616
     32 H10        -0.9181    2.3112    5.3814 H         1 MOL         0.0261
     33 H11         1.4263    1.4447    9.0319 H         1 MOL         0.4543
     34 H12         3.4492    1.5512   10.3989 H         1 MOL         0.1445
     35 H13         5.1867    0.1992   11.5044 H         1 MOL         0.1315
     36 H14         4.1878   -3.1486    8.9840 H         1 MOL         0.1315
     37 H15         2.4502   -1.7983    7.8771 H         1 MOL         0.1445
     38 H16         5.4347   -2.9085   11.8528 H         1 MOL         0.0428
     39 H17         6.2784   -3.1250   10.2994 H         1 MOL         0.0428
     40 H18         6.6871   -1.7550   11.3306 H         1 MOL         0.0428
@<TRIPOS>BOND
     1    1    2 1
     2    2    7 ar
     3    2    3 ar
     4    3    4 ar
     5    4    5 ar
     6    5    6 ar
     7    6    7 ar
     8    5    8 1
     9    8    9 1
    10    9   14 ar
    11    9   10 ar
    12   10   11 ar
    13   11   12 ar
    14   12   13 ar
    15   13   14 ar
    16   13   15 1
    17   15   16 1
    18   16   21 ar
    19   16   17 ar
    20   17   18 ar
    21   18   19 ar
    22   19   20 ar
    23   20   21 ar
    24   19   22 1
    25    1   23 1
    26    1   24 1
    27    1   25 1
    28    3   26 1
    29    4   27 1
    30    6   28 1
    31    7   29 1
    32    8   30 1
    33   10   31 1
    34   11   32 1
    35   15   33 1
    36   17   34 1
    37   18   35 1
    38   20   36 1
    39   21   37 1
    40   22   38 1
    41   22   39 1
    42   22   40 1
