@<TRIPOS>MOLECULE
4-[5-[6-(4-methylpiperazin-1-yl)-1~{H}-benzimidazol-2-yl]-1,3-dihydrobenzimidazol-2-ylidene]cyclohexa-2,5-dien-1-one
   56    61     0     0     0
SMALL
USER_CHARGES

@<TRIPOS>ATOM
      1 C1          2.2520   -0.9309   -3.6933 C.3       1 MOL         0.1482
      2 N1          2.4780   -0.6450   -2.2770 N.3       1 MOL        -0.7201
      3 C2          2.6617   -1.8909   -1.5230 C.3       1 MOL         0.1599
      4 C3          2.9552   -1.6036   -0.0484 C.3       1 MOL         0.1873
      5 N2          1.9200   -0.7367    0.5229 N.pl3     1 MOL        -0.6441
      6 C4          1.6030    0.4697   -0.2517 C.3       1 MOL         0.1873
      7 C5          1.3523    0.1149   -1.7192 C.3       1 MOL         0.1599
      8 C6          1.7377   -0.6944    1.9097 C.ar      1 MOL         0.1514
      9 C7          0.4691   -0.4293    2.4306 C.ar      1 MOL        -0.1622
     10 C8          0.2472   -0.3789    3.8107 C.ar      1 MOL        -0.0507
     11 C9          1.3515   -0.6054    4.6329 C.ar      1 MOL         0.0407
     12 C10         2.6272   -0.8718    4.1438 C.ar      1 MOL         0.0769
     13 C11         2.8320   -0.9189    2.7545 C.ar      1 MOL        -0.1940
     14 N3          3.5188   -1.0538    5.1760 N.pl3     1 MOL        -0.6725
     15 C12         2.8083   -0.9027    6.2712 C.2       1 MOL         0.5562
     16 N4          1.4968   -0.6313    5.9963 N.2       1 MOL        -0.5419
     17 C13         3.3724   -1.0155    7.5943 C.ar      1 MOL        -0.1069
     18 C14         2.8101   -0.2671    8.6511 C.ar      1 MOL        -0.1042
     19 C15         3.3234   -0.3453    9.9496 C.ar      1 MOL        -0.1289
     20 C16         4.3970   -1.1810   10.1496 C.ar      1 MOL         0.0981
     21 C17         4.9635   -1.9349    9.0848 C.ar      1 MOL         0.0858
     22 C18         4.4641   -1.8635    7.8057 C.ar      1 MOL        -0.0887
     23 N5          6.0280   -2.6786    9.6063 N.pl3     1 MOL        -0.6302
     24 C19         6.1132   -2.3858   10.9659 C.2       1 MOL         0.4108
     25 C20         7.0138   -2.9040   11.8122 C.2       1 MOL        -0.2483
     26 C21         8.0091   -3.8544   11.3362 C.2       1 MOL        -0.0388
     27 C22         8.9159   -4.3820   12.1689 C.2       1 MOL        -0.2632
     28 C23         8.9241   -4.0047   13.6081 C.2       1 MOL         0.5599
     29 O1          9.7477   -4.4795   14.3827 O.2       1 MOL        -0.5670
     30 C24         7.8999   -3.0324   14.0766 C.2       1 MOL        -0.2632
     31 C25         7.0073   -2.5231   13.2176 C.2       1 MOL        -0.0388
     32 N6          5.1206   -1.4710   11.3116 N.pl3     1 MOL        -0.6250
     33 H1          3.0937   -1.4964   -4.1014 H         1 MOL         0.0328
     34 H2          2.1488    0.0013   -4.2554 H         1 MOL         0.0328
     35 H3          1.3388   -1.5188   -3.8192 H         1 MOL         0.0328
     36 H4          1.7704   -2.5281   -1.6023 H         1 MOL         0.0409
     37 H5          3.5051   -2.4581   -1.9353 H         1 MOL         0.0409
     38 H6          2.9946   -2.5555    0.4959 H         1 MOL         0.0446
     39 H7          3.9382   -1.1239    0.0500 H         1 MOL         0.0446
     40 H8          0.7062    0.9544    0.1538 H         1 MOL         0.0446
     41 H9          2.4314    1.1868   -0.1779 H         1 MOL         0.0446
     42 H10         0.4187   -0.4580   -1.8029 H         1 MOL         0.0409
     43 H11         1.2137    1.0479   -2.2786 H         1 MOL         0.0409
     44 H12        -0.3705   -0.2572    1.7600 H         1 MOL         0.1432
     45 H13        -0.7379   -0.1732    4.2136 H         1 MOL         0.1502
     46 H14         3.8192   -1.1252    2.3503 H         1 MOL         0.1412
     47 H15         4.5057   -1.2590    5.0806 H         1 MOL         0.4637
     48 H16         1.9601    0.3872    8.4659 H         1 MOL         0.1487
     49 H17         2.8883    0.2315   10.7571 H         1 MOL         0.1512
     50 H18         4.9033   -2.4424    6.9998 H         1 MOL         0.1664
     51 H19         6.6337   -3.3112    9.1135 H         1 MOL         0.4840
     52 H20         8.0124   -4.1357   10.2874 H         1 MOL         0.1054
     53 H21         9.6606   -5.0892   11.8229 H         1 MOL         0.1445
     54 H22         7.9027   -2.7537   15.1240 H         1 MOL         0.1445
     55 H23         6.2648   -1.8137   13.5696 H         1 MOL         0.1054
     56 H24         4.9729   -1.1006   12.2342 H         1 MOL         0.4777
@<TRIPOS>BOND
     1    1    2 1
     2    2    7 1
     3    2    3 1
     4    3    4 1
     5    4    5 1
     6    5    6 1
     7    6    7 1
     8    5    8 1
     9    8   13 ar
    10    8    9 ar
    11    9   10 ar
    12   10   11 ar
    13   11   16 1
    14   11   12 ar
    15   12   13 ar
    16   12   14 1
    17   14   15 1
    18   15   16 2
    19   15   17 1
    20   17   22 ar
    21   17   18 ar
    22   18   19 ar
    23   19   20 ar
    24   20   32 1
    25   20   21 ar
    26   21   22 ar
    27   21   23 1
    28   23   24 1
    29   24   25 2
    30   25   31 1
    31   25   26 1
    32   26   27 2
    33   27   28 1
    34   28   29 2
    35   28   30 1
    36   30   31 2
    37   24   32 1
    38    1   33 1
    39    1   34 1
    40    1   35 1
    41    3   36 1
    42    3   37 1
    43    4   38 1
    44    4   39 1
    45    6   40 1
    46    6   41 1
    47    7   42 1
    48    7   43 1
    49    9   44 1
    50   10   45 1
    51   13   46 1
    52   14   47 1
    53   18   48 1
    54   19   49 1
    55   22   50 1
    56   23   51 1
    57   26   52 1
    58   27   53 1
    59   30   54 1
    60   31   55 1
    61   32   56 1
