@<TRIPOS>MOLECULE
~{N}-(6-isopropyl-1,3-benzothiazol-2-yl)butanamide
   36    37     0     0     0
SMALL
USER_CHARGES

@<TRIPOS>ATOM
      1 C1         -0.1861   -1.4336   -1.8379 C.3       1 MOL        -0.0938
      2 C2         -1.2997   -1.1330   -0.8443 C.3       1 MOL        -0.0790
      3 C3         -2.5096   -2.0468   -1.0266 C.3       1 MOL        -0.1396
      4 C4         -3.6442   -1.7727   -0.0470 C.2       1 MOL         0.6794
      5 O1         -3.5806   -0.8791    0.7907 O.2       1 MOL        -0.5796
      6 N1         -4.7075   -2.6419   -0.2745 N.am      1 MOL        -0.4741
      7 C5         -5.9464   -2.6866    0.4082 C.2       1 MOL         0.4545
      8 N2         -6.3454   -1.9182    1.3946 N.2       1 MOL        -0.6056
      9 C6         -7.6247   -2.2880    1.7834 C.ar      1 MOL         0.1146
     10 C7         -8.3868   -1.6936    2.8124 C.ar      1 MOL        -0.0886
     11 C8         -9.6685   -2.1757    3.0932 C.ar      1 MOL        -0.1163
     12 C9        -10.1994   -3.2361    2.3671 C.ar      1 MOL        -0.0738
     13 C10        -9.4664   -3.8422    1.3437 C.ar      1 MOL        -0.0779
     14 C11        -8.1795   -3.3529    1.0671 C.ar      1 MOL        -0.0935
     15 S1         -7.0468   -3.8856   -0.1186 S.3       1 MOL        -0.0681
     16 C12       -11.5705   -3.7348    2.6827 C.3       1 MOL        -0.0251
     17 C13       -11.5677   -5.1986    3.1608 C.3       1 MOL        -0.0890
     18 C14       -12.5418   -3.5726    1.4987 C.3       1 MOL        -0.0890
     19 H1          0.6721   -0.7708   -1.6936 H         1 MOL         0.0353
     20 H2         -0.5485   -1.2964   -2.8617 H         1 MOL         0.0353
     21 H3          0.1588   -2.4678   -1.7379 H         1 MOL         0.0353
     22 H4         -1.6193   -0.0941   -0.9880 H         1 MOL         0.0533
     23 H5         -0.9088   -1.2086    0.1768 H         1 MOL         0.0533
     24 H6         -2.2048   -3.0968   -0.9444 H         1 MOL         0.0910
     25 H7         -2.9158   -1.8985   -2.0349 H         1 MOL         0.0910
     26 H8         -4.5959   -3.3286   -1.0175 H         1 MOL         0.3386
     27 H9         -7.9818   -0.8649    3.3865 H         1 MOL         0.1526
     28 H10       -10.2459   -1.7102    3.8880 H         1 MOL         0.1370
     29 H11        -9.8811   -4.6702    0.7754 H         1 MOL         0.1411
     30 H12       -12.0013   -3.1440    3.5129 H         1 MOL         0.0536
     31 H13       -12.5798   -5.5507    3.3885 H         1 MOL         0.0378
     32 H14       -10.9615   -5.3229    4.0647 H         1 MOL         0.0378
     33 H15       -11.1529   -5.8534    2.3863 H         1 MOL         0.0378
     34 H16       -13.5362   -3.9480    1.7651 H         1 MOL         0.0378
     35 H17       -12.1977   -4.1293    0.6203 H         1 MOL         0.0378
     36 H18       -12.6487   -2.5226    1.2054 H         1 MOL         0.0378
@<TRIPOS>BOND
     1    1    2 1
     2    2    3 1
     3    3    4 1
     4    4    5 2
     5    4    6 am
     6    6    7 1
     7    7   15 1
     8    7    8 2
     9    8    9 1
    10    9   14 ar
    11    9   10 ar
    12   10   11 ar
    13   11   12 ar
    14   12   13 ar
    15   13   14 ar
    16   14   15 1
    17   12   16 1
    18   16   17 1
    19   16   18 1
    20    1   19 1
    21    1   20 1
    22    1   21 1
    23    2   22 1
    24    2   23 1
    25    3   24 1
    26    3   25 1
    27    6   26 1
    28   10   27 1
    29   11   28 1
    30   13   29 1
    31   16   30 1
    32   17   31 1
    33   17   32 1
    34   17   33 1
    35   18   34 1
    36   18   35 1
    37   18   36 1
