@<TRIPOS>MOLECULE
(2~{R},3~{R},4~{S},5~{R})-2-(6-aminopurin-9-yl)-5-(hydroxymethyl)tetrahydrofuran-3,4-diol
   32    34     0     0     0
SMALL
USER_CHARGES

@<TRIPOS>ATOM
      1 C1         -1.3816   -5.1241    0.9575 C.ar      1 MOL         0.6892
      2 N1         -2.5285   -5.4424    0.3101 N.ar      1 MOL        -0.7989
      3 C2         -3.3680   -4.4285   -0.0107 C.ar      1 MOL         0.7553
      4 C3         -3.0191   -3.1265    0.3342 C.ar      1 MOL        -0.2279
      5 C4         -1.8132   -2.9553    0.9952 C.ar      1 MOL         0.5886
      6 N2         -0.9361   -3.9086    1.3435 N.ar      1 MOL        -0.7278
      7 N3         -1.7127   -1.6108    1.2130 N.pl3     1 MOL        -0.7026
      8 C5         -2.8375   -1.0324    0.6871 C.2       1 MOL         0.5302
      9 N4         -3.6468   -1.9204    0.1486 N.2       1 MOL        -0.5452
     10 C6         -0.6159   -0.9100    1.8769 C.3       1 MOL         0.4311
     11 H1         -0.2002   -1.6320    2.6174 H         1 MOL         0.1348
     12 C7          0.4468   -0.3802    0.9263 C.3       1 MOL         0.0727
     13 H2         -0.0045   -0.0021    0.0010 H         1 MOL         0.0744
     14 C8          1.0324    0.7610    1.7344 C.3       1 MOL         0.0694
     15 H3          1.5928    1.4797    1.1291 H         1 MOL         0.0585
     16 C9         -0.1994    1.3333    2.4288 C.3       1 MOL         0.1373
     17 H4          0.0358    1.7106    3.4334 H         1 MOL         0.0995
     18 O1         -1.1285    0.2356    2.5840 O.3       1 MOL        -0.3980
     19 C10        -0.8811    2.4285    1.6206 C.3       1 MOL         0.1317
     20 O2         -2.0068    2.8930    2.3449 O.3       1 MOL        -0.5820
     21 O3          1.9175    0.2377    2.7247 O.3       1 MOL        -0.5798
     22 O4          1.3993   -1.3703    0.5961 O.3       1 MOL        -0.5795
     23 N5         -4.5730   -4.6945   -0.6831 N.pl3     1 MOL        -0.9484
     24 H5         -0.7337   -5.9602    1.1988 H         1 MOL         0.0555
     25 H6         -3.0101    0.0345    0.7257 H         1 MOL         0.0750
     26 H7         -1.2118    2.0340    0.6586 H         1 MOL         0.0329
     27 H8         -0.1922    3.2587    1.4578 H         1 MOL         0.0329
     28 H9         -2.4226    3.5892    1.8088 H         1 MOL         0.4032
     29 H10         2.6114   -0.2405    2.2464 H         1 MOL         0.4134
     30 H11         0.9193   -2.1018    0.1695 H         1 MOL         0.4220
     31 H12        -5.2078   -3.9423   -0.8732 H         1 MOL         0.4414
     32 H13        -4.8277   -5.6436   -0.8809 H         1 MOL         0.4414
@<TRIPOS>BOND
     1    1    6 ar
     2    1    2 ar
     3    2    3 ar
     4    3    4 ar
     5    4    9 1
     6    4    5 ar
     7    5    6 ar
     8    5    7 1
     9    7    8 1
    10    8    9 2
    11    7   10 1
    12   10   11 1
    13   10   18 1
    14   10   12 1
    15   12   13 1
    16   12   14 1
    17   14   15 1
    18   14   16 1
    19   16   17 1
    20   16   18 1
    21   16   19 1
    22   19   20 1
    23   14   21 1
    24   12   22 1
    25    3   23 1
    26    1   24 1
    27    8   25 1
    28   19   26 1
    29   19   27 1
    30   20   28 1
    31   21   29 1
    32   22   30 1
    33   23   31 1
    34   23   32 1
