@<TRIPOS>MOLECULE
5-methyl-[1,2,4]triazolo[4,3-a]pyrimidin-7-ol
   17    18     0     0     0
SMALL
USER_CHARGES

@<TRIPOS>ATOM
      1 C1         -0.4478   -1.1670   -2.5295 C.3       1 MOL        -0.0792
      2 C2         -0.5347   -0.6115   -1.1404 C.2       1 MOL         0.0587
      3 C3         -1.6818   -0.6141   -0.4391 C.2       1 MOL        -0.3055
      4 C4         -1.5740   -0.0245    0.9132 C.2       1 MOL         0.6724
      5 N1         -0.5343    0.4831    1.4922 N.2       1 MOL        -0.6733
      6 C5          0.6055    0.4645    0.7434 C.2       1 MOL         0.5837
      7 N2          0.6029   -0.0693   -0.5388 N.pl3     1 MOL        -0.3032
      8 C6          1.8858    0.0730   -0.9893 C.2       1 MOL         0.3304
      9 N3          2.6263    0.6457   -0.0696 N.2       1 MOL        -0.3140
     10 N4          1.8226    0.8923    1.0198 N.2       1 MOL        -0.3214
     11 O1         -2.7703   -0.0721    1.5378 O.3       1 MOL        -0.5679
     12 H1         -0.1893   -2.2288   -2.4980 H         1 MOL         0.0695
     13 H2          0.3165   -0.6361   -3.1039 H         1 MOL         0.0695
     14 H3         -1.4057   -1.0533   -3.0444 H         1 MOL         0.0695
     15 H4         -2.6200   -1.0078   -0.8059 H         1 MOL         0.1798
     16 H5          2.2191   -0.2473   -1.9664 H         1 MOL         0.0781
     17 H6         -2.7215    0.3114    2.4306 H         1 MOL         0.4530
@<TRIPOS>BOND
     1    1    2 1
     2    2    7 1
     3    2    3 2
     4    3    4 1
     5    4    5 2
     6    5    6 1
     7    6   10 2
     8    6    7 1
     9    7    8 1
    10    8    9 2
    11    9   10 1
    12    4   11 1
    13    1   12 1
    14    1   13 1
    15    1   14 1
    16    3   15 1
    17    8   16 1
    18   11   17 1
