@<TRIPOS>MOLECULE
3,5-dimethoxybenzoic acid
   23    23     0     0     0
SMALL
USER_CHARGES

@<TRIPOS>ATOM
      1 C1          0.8343   -0.3914   -2.1375 C.3       1 MOL         0.1098
      2 O1          1.9267   -1.0154   -1.4728 O.3       1 MOL        -0.3174
      3 C2          1.8851   -1.0363   -0.1124 C.ar      1 MOL         0.1407
      4 C3          2.9210   -1.6309    0.6081 C.ar      1 MOL        -0.1316
      5 C4          2.8783   -1.6520    2.0022 C.ar      1 MOL        -0.0746
      6 C5          1.7997   -1.0786    2.6757 C.ar      1 MOL        -0.1316
      7 C6          0.7638   -0.4841    1.9551 C.ar      1 MOL         0.1407
      8 C7          0.8066   -0.4630    0.5610 C.ar      1 MOL        -0.2516
      9 O2         -0.2885    0.0755    2.6123 O.3       1 MOL        -0.3174
     10 C8         -1.3129    0.6661    1.8139 C.3       1 MOL         0.1098
     11 C9          3.9581   -2.2723    2.7535 C.2       1 MOL         0.6500
     12 O3          4.9568   -2.8080    2.2619 O.2       1 MOL        -0.5475
     13 O4          3.7614   -2.2054    4.0988 O.3       1 MOL        -0.6035
     14 H1          0.9879   -0.4413   -3.2182 H         1 MOL         0.0468
     15 H2          0.7590    0.6508   -1.8171 H         1 MOL         0.0468
     16 H3         -0.0872   -0.9178   -1.8780 H         1 MOL         0.0468
     17 H4          3.7598   -2.0768    0.0787 H         1 MOL         0.1743
     18 H5          1.7619   -1.0926    3.7624 H         1 MOL         0.1743
     19 H6         -0.0005    0.0005   -0.0008 H         1 MOL         0.1470
     20 H7         -2.0835    1.0704    2.4688 H         1 MOL         0.0468
     21 H8         -1.7301   -0.0936    1.1541 H         1 MOL         0.0468
     22 H9         -0.8707    1.4674    1.2236 H         1 MOL         0.0468
     23 H10         4.4851   -2.6205    4.6149 H         1 MOL         0.4474
@<TRIPOS>BOND
     1    1    2 1
     2    2    3 1
     3    3    8 ar
     4    3    4 ar
     5    4    5 ar
     6    5    6 ar
     7    6    7 ar
     8    7    8 ar
     9    7    9 1
    10    9   10 1
    11    5   11 1
    12   11   12 2
    13   11   13 1
    14    1   14 1
    15    1   15 1
    16    1   16 1
    17    4   17 1
    18    6   18 1
    19    8   19 1
    20   10   20 1
    21   10   21 1
    22   10   22 1
    23   13   23 1
