@<TRIPOS>MOLECULE
~{N}-(1,3-benzothiazol-5-yl)propanamide
   24    25     0     0     0
SMALL
USER_CHARGES

@<TRIPOS>ATOM
      1 C1          3.2067    3.2165    1.6163 C.3       1 MOL        -0.0857
      2 C2          3.2997    2.4407    0.3146 C.3       1 MOL        -0.1568
      3 C3          2.1203    1.5032    0.1030 C.2       1 MOL         0.6711
      4 O1          1.2089    1.4100    0.9187 O.2       1 MOL        -0.5802
      5 N1          2.2522    0.8164   -1.1005 N.am      1 MOL        -0.4795
      6 C4          1.3776   -0.1269   -1.6421 C.ar      1 MOL         0.0792
      7 C5          0.2175   -0.4688   -0.9561 C.ar      1 MOL        -0.1465
      8 C6         -0.6742   -1.4085   -1.4795 C.ar      1 MOL        -0.0632
      9 C7         -0.3685   -1.9990   -2.7163 C.ar      1 MOL        -0.1091
     10 C8          0.7916   -1.6713   -3.4245 C.ar      1 MOL         0.1048
     11 C9          1.6756   -0.7186   -2.8730 C.ar      1 MOL        -0.1445
     12 N2          0.9552   -2.3379   -4.6301 N.2       1 MOL        -0.5273
     13 C10        -0.0585   -3.1484   -4.8253 C.2       1 MOL         0.3607
     14 S1         -1.2595   -3.1758   -3.6075 S.3       1 MOL        -0.0450
     15 H1          4.0679    3.8813    1.7402 H         1 MOL         0.0483
     16 H2          3.1794    2.5299    2.4680 H         1 MOL         0.0483
     17 H3          2.3012    3.8316    1.6435 H         1 MOL         0.0483
     18 H4          4.2211    1.8469    0.3082 H         1 MOL         0.0628
     19 H5          3.3417    3.1419   -0.5268 H         1 MOL         0.0628
     20 H6          3.0832    1.0266   -1.6495 H         1 MOL         0.3172
     21 H7         -0.0119   -0.0056    0.0011 H         1 MOL         0.1788
     22 H8         -1.5787   -1.6691   -0.9386 H         1 MOL         0.1438
     23 H9          2.5827   -0.4525   -3.4097 H         1 MOL         0.1490
     24 H10        -0.1350   -3.7691   -5.7075 H         1 MOL         0.0624
@<TRIPOS>BOND
     1    1    2 1
     2    2    3 1
     3    3    4 2
     4    3    5 am
     5    5    6 1
     6    6   11 ar
     7    6    7 ar
     8    7    8 ar
     9    8    9 ar
    10    9   14 1
    11    9   10 ar
    12   10   11 ar
    13   10   12 1
    14   12   13 2
    15   13   14 1
    16    1   15 1
    17    1   16 1
    18    1   17 1
    19    2   18 1
    20    2   19 1
    21    5   20 1
    22    7   21 1
    23    8   22 1
    24   11   23 1
    25   13   24 1
