@<TRIPOS>MOLECULE
[(14~{E},16~{E},18~{Z},26~{S},27~{R},28~{R},29~{R},30~{S},31~{S},32~{R},33~{S},35~{E},42~{S})-24,31,32,36-tetrahydroxy-30-methoxy-20,26,27,28,29,34,42-heptamethyl-35-[[(4-methylpiperazin-1-yl)amino]methylene]-37,38,40-trioxo-55,56-dioxa-43-azatetracyclo[BLAH.BLAH.BLAH.BLAH.BLAH]triaconta-14,16,18(34),20(25),21(23),22(24),36(39)-heptaen-33-yl] acetate
  117   121     0     0     0
SMALL
USER_CHARGES

@<TRIPOS>ATOM
      1 C1         -7.5657    1.0968   -2.5672 C.3       1 MOL        -0.0947
      2 C2         -8.1265    1.1310   -3.9991 C.3       1 MOL        -0.0664
      3 H1         -8.8161    1.9779   -4.0255 H         1 MOL         0.0557
      4 C3         -7.0741    1.3997   -5.0510 C.2       1 MOL        -0.1277
      5 C4         -5.7551    1.1700   -4.9500 C.2       1 MOL        -0.1604
      6 C5         -4.8451    1.3581   -6.0589 C.2       1 MOL        -0.0774
      7 C6         -3.5328    1.0659   -6.1158 C.2       1 MOL        -0.1741
      8 C7         -2.7463    0.4921   -4.9800 C.2       1 MOL         0.6960
      9 O1         -1.7604    1.1242   -4.5859 O.2       1 MOL        -0.6432
     10 N1         -3.1239   -0.6816   -4.3591 N.am      1 MOL        -0.4859
     11 C8         -4.0492   -1.6745   -4.6582 C.2       1 MOL         0.0019
     12 C9         -4.3507   -2.1019   -5.9033 C.2       1 MOL         0.1167
     13 C10        -5.3894   -3.1295   -6.1426 C.ar      1 MOL        -0.1372
     14 C11        -5.8610   -3.3776   -7.4537 C.ar      1 MOL         0.2244
     15 C12        -6.8177   -4.3618   -7.7117 C.ar      1 MOL        -0.1276
     16 C13        -7.3071   -5.0903   -6.6473 C.ar      1 MOL         0.1697
     17 C14        -6.8747   -4.8517   -5.3538 C.ar      1 MOL        -0.2548
     18 C15        -5.9098   -3.8869   -5.0739 C.ar      1 MOL        -0.0101
     19 C16        -5.3987   -3.6364   -3.7076 C.2       1 MOL         0.5822
     20 O2         -5.5559   -4.4475   -2.8051 O.2       1 MOL        -0.5218
     21 C17        -4.6555   -2.3534   -3.5058 C.2       1 MOL        -0.2770
     22 C18        -4.6220   -1.9153   -2.2346 C.2       1 MOL         0.1702
     23 N2         -3.9918   -0.7718   -1.8734 N.pl3     1 MOL        -0.5200
     24 N3         -3.4683   -0.7278   -0.5954 N.3       1 MOL        -0.4482
     25 C19        -3.3138    0.6624   -0.1562 C.3       1 MOL         0.1358
     26 C20        -2.7136    0.7237    1.2528 C.3       1 MOL         0.1644
     27 N4         -1.4260    0.0198    1.3035 N.3       1 MOL        -0.7262
     28 C21        -1.5834   -1.3718    0.8620 C.3       1 MOL         0.1644
     29 C22        -2.1835   -1.4325   -0.5469 C.3       1 MOL         0.1358
     30 C23        -0.8563    0.0763    2.6483 C.3       1 MOL         0.1523
     31 C24        -7.6660   -5.7535   -4.5343 C.2       1 MOL         0.5569
     32 O3         -7.7031   -5.7922   -3.3201 O.2       1 MOL        -0.4428
     33 C25        -8.4948   -6.6125   -5.4763 C.3       1 MOL         0.2301
     34 O4         -8.2498   -6.0759   -6.7998 O.3       1 MOL        -0.3192
     35 O5         -9.8755   -6.6800   -5.1158 O.3       1 MOL        -0.3185
     36 C26       -10.5501   -5.5191   -5.3756 C.2       1 MOL         0.0058
     37 C27       -11.6462   -5.4656   -6.1411 C.2       1 MOL        -0.2225
     38 C28       -12.3079   -4.1629   -6.5111 C.3       1 MOL         0.1887
     39 H2        -12.5062   -3.6071   -5.5873 H         1 MOL         0.0521
     40 C29       -11.4304   -3.3197   -7.4766 C.3       1 MOL        -0.0645
     41 H3        -10.4369   -3.2146   -7.0263 H         1 MOL         0.0611
     42 C30       -11.9682   -1.8874   -7.7400 C.3       1 MOL         0.1466
     43 H4        -11.2652   -1.3855   -8.4124 H         1 MOL         0.0825
     44 C31       -12.2153   -0.9986   -6.4893 C.3       1 MOL        -0.0949
     45 H5        -13.1350   -1.3793   -6.0221 H         1 MOL         0.0555
     46 C32       -11.1188   -1.0049   -5.3816 C.3       1 MOL         0.1409
     47 H6        -10.7964   -2.0488   -5.1961 H         1 MOL         0.0797
     48 C33        -9.8351   -0.1303   -5.5746 C.3       1 MOL        -0.1211
     49 H7        -10.1603    0.9090   -5.7062 H         1 MOL         0.0612
     50 C34        -8.9568   -0.1583   -4.2753 C.3       1 MOL         0.1464
     51 H8         -9.6085   -0.2703   -3.4029 H         1 MOL         0.0866
     52 O6         -8.0970   -1.2978   -4.2637 O.3       1 MOL        -0.5926
     53 C35        -9.0541   -0.5729   -6.8171 C.3       1 MOL        -0.0875
     54 O7        -11.7829   -0.5843   -4.1735 O.3       1 MOL        -0.5983
     55 C36       -12.5785    0.4371   -6.9181 C.3       1 MOL        -0.0988
     56 O8        -13.1962   -1.9961   -8.4726 O.3       1 MOL        -0.4359
     57 C37       -13.1707   -1.4801   -9.7331 C.2       1 MOL         0.6482
     58 O9        -12.2166   -0.9454  -10.2818 O.2       1 MOL        -0.5349
     59 C38       -14.5128   -1.6638  -10.3742 C.3       1 MOL        -0.1476
     60 C39       -11.2152   -4.0421   -8.8219 C.3       1 MOL        -0.0881
     61 O10       -13.5771   -4.4335   -7.1024 O.3       1 MOL        -0.4105
     62 C40       -14.5602   -4.7066   -6.1152 C.3       1 MOL         0.1135
     63 C41        -7.9575   -8.0431   -5.4501 C.3       1 MOL        -0.0822
     64 C42        -7.3134   -4.6160   -9.0956 C.3       1 MOL        -0.0377
     65 O11        -5.4324   -2.6371   -8.5224 O.3       1 MOL        -0.4880
     66 O12        -3.6622   -1.7221   -7.0348 O.3       1 MOL        -0.5238
     67 C43        -2.7092    1.4232   -7.3241 C.3       1 MOL        -0.0554
     68 H9         -6.8587    0.2699   -2.4510 H         1 MOL         0.0447
     69 H10        -7.0447    2.0307   -2.3358 H         1 MOL         0.0447
     70 H11        -8.3734    0.9638   -1.8412 H         1 MOL         0.0447
     71 H12        -7.4614    1.7983   -5.9876 H         1 MOL         0.1162
     72 H13        -5.3469    0.7956   -4.0199 H         1 MOL         0.1549
     73 H14        -5.2982    1.7943   -6.9492 H         1 MOL         0.1313
     74 H15        -2.6147   -0.8579   -3.4958 H         1 MOL         0.3356
     75 H16        -5.1034   -2.4649   -1.4424 H         1 MOL         0.1821
     76 H17        -3.8692   -0.0183   -2.5219 H         1 MOL         0.4050
     77 H18        -2.6753    1.2261   -0.8484 H         1 MOL         0.0509
     78 H19        -4.2927    1.1538   -0.1386 H         1 MOL         0.0509
     79 H20        -2.5714    1.7775    1.5215 H         1 MOL         0.0455
     80 H21        -3.4226    0.2949    1.9741 H         1 MOL         0.0455
     81 H22        -0.6048   -1.8667    0.8411 H         1 MOL         0.0455
     82 H23        -2.2193   -1.9345    1.5590 H         1 MOL         0.0455
     83 H24        -1.4698   -1.0051   -1.2630 H         1 MOL         0.0509
     84 H25        -2.3292   -2.4836   -0.8183 H         1 MOL         0.0509
     85 H26         0.0917   -0.4516    2.6509 H         1 MOL         0.0366
     86 H27        -1.5442   -0.3934    3.3440 H         1 MOL         0.0366
     87 H28        -0.7033    1.1146    2.9243 H         1 MOL         0.0366
     88 H29       -10.0932   -4.6443   -4.9347 H         1 MOL         0.1414
     89 H30       -12.0376   -6.3846   -6.5699 H         1 MOL         0.1524
     90 H31        -8.6733   -2.0763   -4.2962 H         1 MOL         0.3974
     91 H32        -8.1690    0.0476   -6.9300 H         1 MOL         0.0400
     92 H33        -9.6828   -0.4688   -7.6975 H         1 MOL         0.0400
     93 H34        -8.7553   -1.6121   -6.7074 H         1 MOL         0.0400
     94 H35       -12.1259    0.2983   -4.3598 H         1 MOL         0.4008
     95 H36       -12.7468    1.0406   -6.0332 H         1 MOL         0.0460
     96 H37       -13.4791    0.4108   -7.5213 H         1 MOL         0.0460
     97 H38       -11.7610    0.8530   -7.4963 H         1 MOL         0.0460
     98 H39       -15.1452   -0.7974  -10.1656 H         1 MOL         0.0724
     99 H40       -14.9790   -2.5798  -10.0026 H         1 MOL         0.0724
    100 H41       -14.3882   -1.7518  -11.4574 H         1 MOL         0.0724
    101 H42       -10.6002   -3.4214   -9.4632 H         1 MOL         0.0440
    102 H43       -12.1777   -4.2142   -9.2896 H         1 MOL         0.0440
    103 H44       -10.7194   -4.9888   -8.6405 H         1 MOL         0.0440
    104 H45       -15.5156   -4.9084   -6.6029 H         1 MOL         0.0331
    105 H46       -14.6505   -3.8475   -5.4478 H         1 MOL         0.0331
    106 H47       -14.2501   -5.5827   -5.5432 H         1 MOL         0.0331
    107 H48        -8.5432   -8.6686   -6.1212 H         1 MOL         0.0691
    108 H49        -8.0240   -8.4427   -4.4399 H         1 MOL         0.0691
    109 H50        -6.9173   -8.0514   -5.7703 H         1 MOL         0.0691
    110 H51        -6.6916   -5.3716   -9.5908 H         1 MOL         0.0558
    111 H52        -8.3521   -4.9705   -9.0875 H         1 MOL         0.0558
    112 H53        -7.2951   -3.6995   -9.6996 H         1 MOL         0.0558
    113 H54        -4.7981   -1.9691   -8.2258 H         1 MOL         0.4574
    114 H55        -2.9526   -1.1196   -6.7944 H         1 MOL         0.4519
    115 H56        -2.2925    2.4175   -7.1924 H         1 MOL         0.0515
    116 H57        -3.3408    1.4027   -8.2078 H         1 MOL         0.0515
    117 H58        -1.9068    0.6996   -7.4377 H         1 MOL         0.0515
@<TRIPOS>BOND
     1    1    2 1
     2    2    3 1
     3    2   50 1
     4    2    4 1
     5    4    5 2
     6    5    6 1
     7    6    7 2
     8    7    8 1
     9    8    9 2
    10    8   10 am
    11   10   11 1
    12   11   21 1
    13   11   12 2
    14   12   13 1
    15   13   18 ar
    16   13   14 ar
    17   14   15 ar
    18   15   16 ar
    19   16   34 1
    20   16   17 ar
    21   17   18 ar
    22   18   19 1
    23   19   20 2
    24   19   21 1
    25   21   22 2
    26   22   23 1
    27   23   24 1
    28   24   29 1
    29   24   25 1
    30   25   26 1
    31   26   27 1
    32   27   28 1
    33   28   29 1
    34   27   30 1
    35   17   31 1
    36   31   32 2
    37   31   33 1
    38   33   34 1
    39   33   35 1
    40   35   36 1
    41   36   37 2
    42   37   38 1
    43   38   39 1
    44   38   40 1
    45   40   41 1
    46   40   42 1
    47   42   43 1
    48   42   44 1
    49   44   45 1
    50   44   46 1
    51   46   47 1
    52   46   48 1
    53   48   49 1
    54   48   50 1
    55   50   51 1
    56   50   52 1
    57   48   53 1
    58   46   54 1
    59   44   55 1
    60   42   56 1
    61   56   57 1
    62   57   58 2
    63   57   59 1
    64   40   60 1
    65   38   61 1
    66   61   62 1
    67   33   63 1
    68   15   64 1
    69   14   65 1
    70   12   66 1
    71    7   67 1
    72    1   68 1
    73    1   69 1
    74    1   70 1
    75    4   71 1
    76    5   72 1
    77    6   73 1
    78   10   74 1
    79   22   75 1
    80   23   76 1
    81   25   77 1
    82   25   78 1
    83   26   79 1
    84   26   80 1
    85   28   81 1
    86   28   82 1
    87   29   83 1
    88   29   84 1
    89   30   85 1
    90   30   86 1
    91   30   87 1
    92   36   88 1
    93   37   89 1
    94   52   90 1
    95   53   91 1
    96   53   92 1
    97   53   93 1
    98   54   94 1
    99   55   95 1
   100   55   96 1
   101   55   97 1
   102   59   98 1
   103   59   99 1
   104   59  100 1
   105   60  101 1
   106   60  102 1
   107   60  103 1
   108   62  104 1
   109   62  105 1
   110   62  106 1
   111   63  107 1
   112   63  108 1
   113   63  109 1
   114   64  110 1
   115   64  111 1
   116   64  112 1
   117   65  113 1
   118   66  114 1
   119   67  115 1
   120   67  116 1
   121   67  117 1
