@<TRIPOS>MOLECULE
~{N}-[2-[(2~{S})-2-piperidyl]ethyl]acetamide
   30    30     0     0     0
SMALL
USER_CHARGES

@<TRIPOS>ATOM
      1 C1          3.1637    0.0659   -5.6406 C.3       1 MOL        -0.1797
      2 C2          4.0918    0.1382   -4.4737 C.2       1 MOL         0.6619
      3 O1          4.9484    1.0137   -4.4363 O.2       1 MOL        -0.6089
      4 N1          3.8734   -0.8376   -3.5199 N.am      1 MOL        -0.5804
      5 C3          4.6541   -0.9510   -2.3191 C.3       1 MOL         0.0895
      6 C4          4.0680   -0.1434   -1.1673 C.3       1 MOL        -0.0913
      7 C5          2.6522   -0.5826   -0.7986 C.3       1 MOL         0.1670
      8 H1          2.0160   -0.4466   -1.6825 H         1 MOL         0.0592
      9 C6          2.1090    0.2678    0.3580 C.3       1 MOL        -0.1106
     10 C7          0.7267   -0.2102    0.7942 C.3       1 MOL        -0.0762
     11 C8          0.7445   -1.7071    1.0843 C.3       1 MOL        -0.1153
     12 C9          1.3348   -2.4901   -0.0860 C.3       1 MOL         0.1496
     13 N2          2.6702   -2.0051   -0.4354 N.3       1 MOL        -0.7969
     14 H2          3.5543   -0.5718   -6.4498 H         1 MOL         0.0633
     15 H3          2.1863   -0.3676   -5.3742 H         1 MOL         0.0633
     16 H4          2.9317    1.0311   -6.1187 H         1 MOL         0.0633
     17 H5          3.1253   -1.5066   -3.6751 H         1 MOL         0.3021
     18 H6          5.6598   -0.5898   -2.5561 H         1 MOL         0.0699
     19 H7          4.7248   -2.0131   -2.0643 H         1 MOL         0.0699
     20 H8          4.7118   -0.2622   -0.2880 H         1 MOL         0.0433
     21 H9          4.0595    0.9232   -1.4214 H         1 MOL         0.0433
     22 H10         2.7932    0.2218    1.2156 H         1 MOL         0.0449
     23 H11         2.0506    1.3201    0.0556 H         1 MOL         0.0449
     24 H12         0.4017    0.3414    1.6833 H         1 MOL         0.0406
     25 H13        -0.0003    0.0004    0.0002 H         1 MOL         0.0406
     26 H14         1.3350   -1.8966    1.9896 H         1 MOL         0.0435
     27 H15        -0.2739   -2.0565    1.2881 H         1 MOL         0.0435
     28 H16         1.4006   -3.5506    0.1803 H         1 MOL         0.0510
     29 H17         0.6751   -2.4263   -0.9598 H         1 MOL         0.0510
     30 H18         3.2927   -2.1405    0.3617 H         1 MOL         0.3538
@<TRIPOS>BOND
     1    1    2 1
     2    2    3 2
     3    2    4 am
     4    4    5 1
     5    5    6 1
     6    6    7 1
     7    7    8 1
     8    7   13 1
     9    7    9 1
    10    9   10 1
    11   10   11 1
    12   11   12 1
    13   12   13 1
    14    1   14 1
    15    1   15 1
    16    1   16 1
    17    4   17 1
    18    5   18 1
    19    5   19 1
    20    6   20 1
    21    6   21 1
    22    9   22 1
    23    9   23 1
    24   10   24 1
    25   10   25 1
    26   11   26 1
    27   11   27 1
    28   12   28 1
    29   12   29 1
    30   13   30 1
