@<TRIPOS>MOLECULE
4-(aminomethyl)cyclohexanecarboxylic acid
   26    26     0     0     0
SMALL
USER_CHARGES

@<TRIPOS>ATOM
      1 C1          0.5628   -2.8465   -0.6385 C.3       1 MOL        -0.0716
      2 C2          0.7815   -1.5621   -1.4383 C.3       1 MOL        -0.1113
      3 H1          1.7123   -1.6530   -1.9937 H         1 MOL         0.0523
      4 C3         -0.3593   -1.3177   -2.4260 C.3       1 MOL        -0.0716
      5 C4         -0.5729   -2.5191   -3.3442 C.3       1 MOL        -0.0730
      6 C5         -0.8006   -3.8091   -2.5448 C.3       1 MOL        -0.1506
      7 H2         -1.7503   -3.7225   -1.9811 H         1 MOL         0.0628
      8 C6          0.3477   -4.0488   -1.5554 C.3       1 MOL        -0.0730
      9 C7         -0.9621   -5.0035   -3.4832 C.2       1 MOL         0.6247
     10 O1         -0.4393   -5.1065   -4.5820 O.2       1 MOL        -0.4844
     11 O2         -1.7710   -5.9391   -2.9300 O.3       1 MOL        -0.5842
     12 C8          0.8944   -0.4050   -0.4940 C.3       1 MOL         0.1544
     13 N1          1.9949   -0.6082    0.3862 N.3       1 MOL        -0.9053
     14 H3         -0.3092   -2.7353    0.0186 H         1 MOL         0.0454
     15 H4          1.4260   -3.0372    0.0102 H         1 MOL         0.0454
     16 H5         -1.2897   -1.1115   -1.8814 H         1 MOL         0.0454
     17 H6         -0.1459   -0.4314   -3.0355 H         1 MOL         0.0454
     18 H7         -1.4317   -2.3308   -4.0002 H         1 MOL         0.0569
     19 H8          0.2979   -2.6340   -4.0032 H         1 MOL         0.0569
     20 H9          0.1375   -4.9391   -0.9502 H         1 MOL         0.0569
     21 H10         1.2769   -4.2603   -2.1009 H         1 MOL         0.0569
     22 H11        -2.0894   -5.6682   -2.0425 H         1 MOL         0.4232
     23 H12        -0.0188   -0.3378    0.0816 H         1 MOL         0.0533
     24 H13         1.0534    0.4993   -1.0650 H         1 MOL         0.0533
     25 H14         2.9329   -0.3609    0.0885 H         1 MOL         0.3461
     26 H15         1.8790   -1.1792    1.2171 H         1 MOL         0.3461
@<TRIPOS>BOND
     1    1    8 1
     2    1    2 1
     3    2    3 1
     4    2    4 1
     5    4    5 1
     6    5    6 1
     7    6    7 1
     8    6    8 1
     9    6    9 1
    10    9   10 2
    11    9   11 1
    12    2   12 1
    13   12   13 1
    14    1   14 1
    15    1   15 1
    16    4   16 1
    17    4   17 1
    18    5   18 1
    19    5   19 1
    20    8   20 1
    21    8   21 1
    22   11   22 1
    23   12   23 1
    24   12   24 1
    25   13   25 1
    26   13   26 1
