@<TRIPOS>MOLECULE
(2~{S})-2-[[4-[(2-amino-4-oxo-7,8-dihydro-1~{H}-pteridin-6-yl)methylamino]benzoyl]amino]pentanedioic acid
   53    55     0     0     0
SMALL
USER_CHARGES

@<TRIPOS>ATOM
      1 C1          2.4524    3.1229   -5.1492 C.ar      1 MOL        -0.0437
      2 C2          1.7168    3.0693   -3.9653 C.ar      1 MOL        -0.2058
      3 C3          0.5529    3.8265   -3.8324 C.ar      1 MOL         0.1866
      4 C4          0.1247    4.6374   -4.8835 C.ar      1 MOL        -0.2058
      5 C5          0.8604    4.6910   -6.0675 C.ar      1 MOL        -0.0437
      6 C6          2.0242    3.9337   -6.2003 C.ar      1 MOL        -0.1969
      7 C7          2.7912    3.9896   -7.4346 C.2       1 MOL         0.6865
      8 O1          2.2378    4.2836   -8.5090 O.2       1 MOL        -0.5983
      9 N1          4.1623    3.7230   -7.3434 N.am      1 MOL        -0.5674
     10 C8          5.0609    3.7623   -8.4747 C.3       1 MOL         0.0759
     11 H1          4.4874    3.4878   -9.3744 H         1 MOL         0.1130
     12 C9          5.6818    5.1586   -8.6958 C.3       1 MOL        -0.0851
     13 C10         6.5135    5.7134   -7.5360 C.3       1 MOL        -0.1792
     14 C11         7.0979    7.0783   -7.8005 C.2       1 MOL         0.6242
     15 O2          6.9335    7.7018   -8.8413 O.2       1 MOL        -0.4880
     16 O3          7.8180    7.5521   -6.7538 O.3       1 MOL        -0.5782
     17 C12         6.1330    2.6971   -8.2831 C.2       1 MOL         0.6053
     18 O4          6.5505    2.3102   -7.1993 O.2       1 MOL        -0.5394
     19 O5          6.5930    2.2038   -9.4635 O.3       1 MOL        -0.6112
     20 N2         -0.1780    3.7734   -2.6563 N.pl3     1 MOL        -0.7462
     21 C13         0.1891    2.9665   -1.5243 C.3       1 MOL         0.1667
     22 C14        -0.8473    3.1783   -0.4501 C.2       1 MOL         0.2965
     23 N3         -0.6555    4.1347    0.4089 N.2       1 MOL        -0.4326
     24 C15        -1.6036    4.3231    1.3855 C.2       1 MOL        -0.1672
     25 C16        -2.7241    3.5818    1.5165 C.2       1 MOL         0.4006
     26 N4         -3.5959    3.8727    2.5395 N.pl3     1 MOL        -0.7612
     27 C17        -3.3534    4.8937    3.4243 C.2       1 MOL         0.8371
     28 N5         -2.2934    5.6554    3.3643 N.2       1 MOL        -0.7192
     29 C18        -1.3550    5.4412    2.3682 C.2       1 MOL         0.7799
     30 O6         -0.3380    6.1225    2.2577 O.2       1 MOL        -0.5508
     31 N6         -4.3251    5.0434    4.3793 N.pl3     1 MOL        -0.8893
     32 N7         -2.9430    2.5647    0.6164 N.pl3     1 MOL        -0.7953
     33 C19        -2.0434    2.2460   -0.4612 C.3       1 MOL         0.1677
     34 H2          3.3579    2.5287   -5.2419 H         1 MOL         0.1465
     35 H3          2.0592    2.4341   -3.1523 H         1 MOL         0.1395
     36 H4         -0.7807    5.2318   -4.7910 H         1 MOL         0.1395
     37 H5          0.5177    5.3262   -6.8802 H         1 MOL         0.1465
     38 H6          4.5746    3.5504   -6.4324 H         1 MOL         0.3201
     39 H7          4.8784    5.8626   -8.9474 H         1 MOL         0.0780
     40 H8          6.3353    5.1199   -9.5769 H         1 MOL         0.0780
     41 H9          5.9264    5.7602   -6.6124 H         1 MOL         0.0846
     42 H10         7.3496    5.0361   -7.3217 H         1 MOL         0.0846
     43 H11         7.8720    6.9524   -5.9792 H         1 MOL         0.4257
     44 H12         6.1840    2.5902  -10.2669 H         1 MOL         0.4472
     45 H13        -1.0202    4.3341   -2.5900 H         1 MOL         0.4110
     46 H14         0.2101    1.9096   -1.8011 H         1 MOL         0.0672
     47 H15         1.1686    3.2669   -1.1442 H         1 MOL         0.0672
     48 H16        -4.4281    3.2979    2.6095 H         1 MOL         0.4463
     49 H17        -4.2149    5.7644    5.0542 H         1 MOL         0.4180
     50 H18        -5.1030    4.4253    4.3607 H         1 MOL         0.4180
     51 H19        -3.7906    2.0205    0.7347 H         1 MOL         0.4431
     52 H20        -1.6874    1.2160   -0.3604 H         1 MOL         0.0519
     53 H21        -2.5580    2.3460   -1.4219 H         1 MOL         0.0519
@<TRIPOS>BOND
     1    1    6 ar
     2    1    2 ar
     3    2    3 ar
     4    3    4 ar
     5    4    5 ar
     6    5    6 ar
     7    6    7 1
     8    7    8 2
     9    7    9 am
    10    9   10 1
    11   10   11 1
    12   10   12 1
    13   12   13 1
    14   13   14 1
    15   14   15 2
    16   14   16 1
    17   10   17 1
    18   17   18 2
    19   17   19 1
    20    3   20 1
    21   20   21 1
    22   21   22 1
    23   22   33 1
    24   22   23 2
    25   23   24 1
    26   24   29 1
    27   24   25 2
    28   25   26 1
    29   26   27 1
    30   27   28 2
    31   28   29 1
    32   29   30 2
    33   27   31 1
    34   25   32 1
    35   32   33 1
    36    1   34 1
    37    2   35 1
    38    4   36 1
    39    5   37 1
    40    9   38 1
    41   12   39 1
    42   12   40 1
    43   13   41 1
    44   13   42 1
    45   16   43 1
    46   19   44 1
    47   20   45 1
    48   21   46 1
    49   21   47 1
    50   26   48 1
    51   31   49 1
    52   31   50 1
    53   32   51 1
    54   33   52 1
    55   33   53 1
