@<TRIPOS>MOLECULE
2-[[2-[bis(2-hydroxyethyl)amino]-4,8-bis(1-piperidyl)pyrimido[5,4-d]pyrimidin-6-yl]-(2-hydroxyethyl)amino]ethanol
   76    79     0     0     0
SMALL
USER_CHARGES

@<TRIPOS>ATOM
      1 C1          4.5944   -5.4434  -10.3188 C.3       1 MOL        -0.0801
      2 C2          4.8437   -4.0502   -9.7546 C.3       1 MOL        -0.0954
      3 C3          3.6066   -3.4992   -9.0471 C.3       1 MOL         0.1975
      4 N1          3.1169   -4.4537   -8.0459 N.pl3     1 MOL        -0.7375
      5 C4          2.8749   -5.8255   -8.5151 C.3       1 MOL         0.1975
      6 C5          4.1136   -6.3789   -9.2159 C.3       1 MOL        -0.0954
      7 C6          2.3403   -3.9916   -6.9764 C.ar      1 MOL         0.6344
      8 C7          2.9035   -3.0585   -6.1271 C.ar      1 MOL         0.2027
      9 C8          2.0738   -2.6405   -5.0872 C.ar      1 MOL         0.2027
     10 C9          2.6371   -1.7074   -4.2379 C.ar      1 MOL         0.6344
     11 N2          3.8842   -1.2080   -4.3598 N.ar      1 MOL        -0.7675
     12 C10         4.5804   -1.6897   -5.3996 C.ar      1 MOL         0.9021
     13 N3          4.1565   -2.5954   -6.2989 N.ar      1 MOL        -0.7503
     14 N4          5.8920   -1.1960   -5.5692 N.pl3     1 MOL        -0.7708
     15 C11         6.4313   -0.2169   -4.6476 C.3       1 MOL         0.2305
     16 C12         7.1360   -0.9049   -3.4783 C.3       1 MOL         0.1062
     17 O1          6.1996   -1.7243   -2.7901 O.3       1 MOL        -0.6018
     18 C13         6.7192   -1.6732   -6.6588 C.3       1 MOL         0.2305
     19 C14         6.5266   -0.8070   -7.9037 C.3       1 MOL         0.1062
     20 O2          6.8901    0.5330   -7.5968 O.3       1 MOL        -0.6018
     21 N5          1.8600   -1.2437   -3.1694 N.pl3     1 MOL        -0.7375
     22 C15         2.5653   -0.8390   -1.9449 C.3       1 MOL         0.1975
     23 C16         1.6388   -0.9370   -0.7350 C.3       1 MOL        -0.0954
     24 C17         0.3422   -0.1690   -0.9625 C.3       1 MOL        -0.0799
     25 C18        -0.3411   -0.6563   -2.2342 C.3       1 MOL        -0.0954
     26 C19         0.5882   -0.5651   -3.4436 C.3       1 MOL         0.1975
     27 N6          0.8208   -3.1036   -4.9153 N.ar      1 MOL        -0.7503
     28 C20         0.3969   -4.0093   -5.8146 C.ar      1 MOL         0.9021
     29 N7          1.0932   -4.4910   -6.8544 N.ar      1 MOL        -0.7675
     30 N8         -0.9142   -4.5038   -5.6443 N.pl3     1 MOL        -0.7708
     31 C21        -1.7359   -4.0385   -4.5456 C.3       1 MOL         0.2305
     32 C22        -1.5382   -4.9188   -3.3114 C.3       1 MOL         0.1062
     33 O3         -0.1715   -4.8710   -2.9221 O.3       1 MOL        -0.6018
     34 C23        -1.4586   -5.4721   -6.5745 C.3       1 MOL         0.2305
     35 C24        -2.1683   -4.7703   -7.7325 C.3       1 MOL         0.1062
     36 O4         -1.2345   -3.9438   -8.4158 O.3       1 MOL        -0.6018
     37 H1          5.5154   -5.8353  -10.7642 H         1 MOL         0.0376
     38 H2          3.8438   -5.3925  -11.1166 H         1 MOL         0.0376
     39 H3          5.6791   -4.0936   -9.0442 H         1 MOL         0.0496
     40 H4          5.1427   -3.3699  -10.5599 H         1 MOL         0.0496
     41 H5          3.8698   -2.5473   -8.5690 H         1 MOL         0.0532
     42 H6          2.8181   -3.2944   -9.7828 H         1 MOL         0.0532
     43 H7          2.6281   -6.4783   -7.6685 H         1 MOL         0.0532
     44 H8          2.0199   -5.8377   -9.2035 H         1 MOL         0.0532
     45 H9          4.9178   -6.5149   -8.4816 H         1 MOL         0.0496
     46 H10         3.8912   -7.3664   -9.6354 H         1 MOL         0.0496
     47 H11         5.6186    0.4289   -4.2687 H         1 MOL         0.0711
     48 H12         7.1554    0.4310   -5.1730 H         1 MOL         0.0711
     49 H13         7.5294   -0.1714   -2.7677 H         1 MOL         0.0317
     50 H14         7.9587   -1.5334   -3.8348 H         1 MOL         0.0317
     51 H15         6.6799   -2.1432   -2.0579 H         1 MOL         0.3978
     52 H16         6.4659   -2.7238   -6.8895 H         1 MOL         0.0711
     53 H17         7.7824   -1.6434   -6.3609 H         1 MOL         0.0711
     54 H18         5.4811   -0.8078   -8.2272 H         1 MOL         0.0317
     55 H19         7.1552   -1.1627   -8.7267 H         1 MOL         0.0317
     56 H20         6.7558    1.0514   -8.4064 H         1 MOL         0.3978
     57 H21         3.4425   -1.4813   -1.7735 H         1 MOL         0.0532
     58 H22         2.9357    0.1926   -2.0527 H         1 MOL         0.0532
     59 H23         1.4045   -1.9912   -0.5396 H         1 MOL         0.0496
     60 H24         2.1495   -0.5511    0.1543 H         1 MOL         0.0496
     61 H25        -0.3261   -0.3044   -0.1051 H         1 MOL         0.0376
     62 H26         0.5548    0.9039   -1.0426 H         1 MOL         0.0376
     63 H27        -0.6568   -1.6983   -2.0966 H         1 MOL         0.0496
     64 H28        -1.2473   -0.0686   -2.4191 H         1 MOL         0.0496
     65 H29         0.0859   -1.0183   -4.3118 H         1 MOL         0.0532
     66 H30         0.7761    0.4911   -3.6930 H         1 MOL         0.0532
     67 H31        -2.7998   -4.0442   -4.8444 H         1 MOL         0.0711
     68 H32        -1.4656   -2.9979   -4.2921 H         1 MOL         0.0711
     69 H33        -1.7922   -5.9616   -3.5256 H         1 MOL         0.0317
     70 H34        -2.1543   -4.5652   -2.4782 H         1 MOL         0.0317
     71 H35        -0.0838   -5.4386   -2.1395 H         1 MOL         0.3978
     72 H36        -2.1660   -6.1395   -6.0497 H         1 MOL         0.0711
     73 H37        -0.6445   -6.0997   -6.9788 H         1 MOL         0.0711
     74 H38        -2.9809   -4.1333   -7.3695 H         1 MOL         0.0317
     75 H39        -2.5756   -5.5004   -8.4395 H         1 MOL         0.0317
     76 H40        -1.7179   -3.5163   -9.1409 H         1 MOL         0.3978
@<TRIPOS>BOND
     1    1    6 1
     2    1    2 1
     3    2    3 1
     4    3    4 1
     5    4    5 1
     6    5    6 1
     7    4    7 1
     8    7   29 ar
     9    7    8 ar
    10    8   13 ar
    11    8    9 ar
    12    9   10 ar
    13   10   11 ar
    14   11   12 ar
    15   12   13 ar
    16   12   14 1
    17   14   15 1
    18   15   16 1
    19   16   17 1
    20   14   18 1
    21   18   19 1
    22   19   20 1
    23   10   21 1
    24   21   26 1
    25   21   22 1
    26   22   23 1
    27   23   24 1
    28   24   25 1
    29   25   26 1
    30    9   27 ar
    31   27   28 ar
    32   28   29 ar
    33   28   30 1
    34   30   31 1
    35   31   32 1
    36   32   33 1
    37   30   34 1
    38   34   35 1
    39   35   36 1
    40    1   37 1
    41    1   38 1
    42    2   39 1
    43    2   40 1
    44    3   41 1
    45    3   42 1
    46    5   43 1
    47    5   44 1
    48    6   45 1
    49    6   46 1
    50   15   47 1
    51   15   48 1
    52   16   49 1
    53   16   50 1
    54   17   51 1
    55   18   52 1
    56   18   53 1
    57   19   54 1
    58   19   55 1
    59   20   56 1
    60   22   57 1
    61   22   58 1
    62   23   59 1
    63   23   60 1
    64   24   61 1
    65   24   62 1
    66   25   63 1
    67   25   64 1
    68   26   65 1
    69   26   66 1
    70   31   67 1
    71   31   68 1
    72   32   69 1
    73   32   70 1
    74   33   71 1
    75   34   72 1
    76   34   73 1
    77   35   74 1
    78   35   75 1
    79   36   76 1
