@<TRIPOS>MOLECULE
2-[(2-methoxyanilino)methyl]-5,6-dimethyl-4~{H}-[1,2,4]triazolo[1,5-a]pyrimidin-7-one
   39    41     0     0     0
SMALL
USER_CHARGES

@<TRIPOS>ATOM
      1 C1         -2.8689   -1.3100    0.9760 C.3       1 MOL        -0.0411
      2 C2         -1.5835   -0.6625    0.5556 C.2       1 MOL        -0.2579
      3 C3         -1.4426    0.5042   -0.1234 C.2       1 MOL         0.1841
      4 N1         -0.1944    0.9937   -0.4953 N.pl3     1 MOL        -0.7134
      5 C4          0.9489    0.3448   -0.2018 C.2       1 MOL         0.6420
      6 N2          2.2146    0.6004   -0.4400 N.2       1 MOL        -0.7173
      7 C5          2.8434   -0.4682    0.1366 C.2       1 MOL         0.5181
      8 N3          2.0492   -1.3716    0.7180 N.2       1 MOL        -0.4664
      9 N4          0.8377   -0.8332    0.4900 N.am      1 MOL        -0.0643
     10 C6         -0.3399   -1.4294    0.9183 C.2       1 MOL         0.6284
     11 O1         -0.2983   -2.4830    1.5320 O.2       1 MOL        -0.5508
     12 C7          4.3036   -0.6154    0.1191 C.3       1 MOL         0.1755
     13 N5          4.7910   -1.3410   -1.0380 N.pl3     1 MOL        -0.7138
     14 C8          6.1291   -1.6011   -1.2671 C.ar      1 MOL         0.1261
     15 C9          7.0804   -1.1528   -0.3507 C.ar      1 MOL        -0.1671
     16 C10         8.4340   -1.4092   -0.5690 C.ar      1 MOL        -0.1269
     17 C11         8.8364   -2.1137   -1.7037 C.ar      1 MOL        -0.1363
     18 C12         7.8850   -2.5619   -2.6201 C.ar      1 MOL        -0.1723
     19 C13         6.5314   -2.3056   -2.4018 C.ar      1 MOL         0.0822
     20 O2          5.6177   -2.7520   -3.3092 O.3       1 MOL        -0.3377
     21 C14         5.0802   -4.0559   -3.0990 C.3       1 MOL         0.1165
     22 C15        -2.6004    1.3830   -0.5188 C.3       1 MOL        -0.0780
     23 H1         -3.1503   -0.9786    1.9791 H         1 MOL         0.0545
     24 H2         -2.7618   -2.3983    0.9824 H         1 MOL         0.0545
     25 H3         -3.6712   -1.0476    0.2809 H         1 MOL         0.0545
     26 H4         -0.1872    1.8722   -1.0039 H         1 MOL         0.4801
     27 H5          4.8241    0.3625    0.1161 H         1 MOL         0.0804
     28 H6          4.6888   -1.1541    1.0069 H         1 MOL         0.0804
     29 H7          4.1099   -1.6722   -1.7076 H         1 MOL         0.4042
     30 H8          6.7786   -0.6028    0.5371 H         1 MOL         0.1328
     31 H9          9.1745   -1.0599    0.1446 H         1 MOL         0.1303
     32 H10         9.8905   -2.3129   -1.8736 H         1 MOL         0.1314
     33 H11         8.2051   -3.1112   -3.5014 H         1 MOL         0.1350
     34 H12         4.3693   -4.2792   -3.8937 H         1 MOL         0.0428
     35 H13         4.5893   -4.0852   -2.1268 H         1 MOL         0.0428
     36 H14         5.8985   -4.7746   -3.1222 H         1 MOL         0.0428
     37 H15        -2.7929    2.0976    0.2753 H         1 MOL         0.0679
     38 H16        -3.4785    0.7651   -0.6809 H         1 MOL         0.0679
     39 H17        -2.3527    1.9076   -1.4365 H         1 MOL         0.0679
@<TRIPOS>BOND
     1    1    2 1
     2    2   10 1
     3    2    3 2
     4    3    4 1
     5    4    5 1
     6    5    9 1
     7    5    6 2
     8    6    7 1
     9    7    8 2
    10    8    9 1
    11    9   10 am
    12   10   11 2
    13    7   12 1
    14   12   13 1
    15   13   14 1
    16   14   19 ar
    17   14   15 ar
    18   15   16 ar
    19   16   17 ar
    20   17   18 ar
    21   18   19 ar
    22   19   20 1
    23   20   21 1
    24    3   22 1
    25    1   23 1
    26    1   24 1
    27    1   25 1
    28    4   26 1
    29   12   27 1
    30   12   28 1
    31   13   29 1
    32   15   30 1
    33   16   31 1
    34   17   32 1
    35   18   33 1
    36   21   34 1
    37   21   35 1
    38   21   36 1
    39   22   37 1
    40   22   38 1
    41   22   39 1
